1

   Abaqus 2021                                  Date 22-Feb-2023   Time 18:07:07
   For use by UNIVERSITAET BERN under license from Dassault Systemes or its subsidiary.



                         The Abaqus Software is a product of:

                           Dassault Systemes SIMULIA Corp.
                           1301 Atwood Avenue, Suite 101W
                              Johnston, RI 02919, USA
 


                   The Abaqus Software is available only under license
                   from Dassault Systemes or its subsidiary and may be
                   used or reproduced only in accordance with the terms
                   of such license.
 
                          On machine artorg-cortex.campus.unibe.ch 
                          you are authorized to run
                          Abaqus/Standard until 31-Jan-2024

                          Your site id is: 200000000031934 


 
                    For assistance or any other information you may
                    obtain contact information for your local office
                    from the world wide web at:

                      http://www.3ds.com/products/simulia/locations/

 
                * * * * * * * * * * * * * * * * * * * * * * * * * * * * * * 
                *                                                         * 
                *                   *****************                     * 
                *                   *  N O T I C E  *                     * 
                *                   *****************                     * 
                *                                                         * 
                *                                                         * 
                *                       Abaqus 2021                       * 
                *                                                         * 
                *          BUILD ID: 2020_03_06-15.50.37 167380           * 
                *                                                         * 
                *                                                         * 
                *  Please make sure you are using                         * 
                *  release Abaqus 2021 manuals                            * 
                *  plus the notes accompanying this release.              * 
                *                                                         * 
                *                                                         * 
                *                                                         * 
                *                                                         * 
                *                                                         * 
                *   This program may not be used for commercial purposes  * 
                *           without payment of a commercial fee.          * 
                *                                                         * 
                * * * * * * * * * * * * * * * * * * * * * * * * * * * * * * 


 



     PROCESSING PART, INSTANCE, AND ASSEMBLY INFORMATION
   *******************************************************


     END PROCESSING PART, INSTANCE, AND ASSEMBLY INFORMATION
   ***********************************************************




     OPTIONS BEING PROCESSED
   ***************************


  *NODE
  *ELEMENT, TYPE=C3D8, ELSET=BONE
  *ELEMENT, TYPE=C3D8, ELSET=Elset268

 ***WARNING: ELEMENT LABEL 268 HAS BEEN USED MORE THAN ONCE. ONLY THE LAST 
             DEFINITION IS CONSIDERED.
  *ELEMENT, TYPE=C3D8, ELSET=Elset269

 ***WARNING: ELEMENT LABEL 269 HAS BEEN USED MORE THAN ONCE. ONLY THE LAST 
             DEFINITION IS CONSIDERED.
  *ELEMENT, TYPE=C3D8, ELSET=Elset270

 ***WARNING: ELEMENT LABEL 270 HAS BEEN USED MORE THAN ONCE. ONLY THE LAST 
             DEFINITION IS CONSIDERED.
  *ELEMENT, TYPE=C3D8, ELSET=Elset271

 ***WARNING: ELEMENT LABEL 271 HAS BEEN USED MORE THAN ONCE. ONLY THE LAST 
             DEFINITION IS CONSIDERED.
  *ELEMENT, TYPE=C3D8, ELSET=Elset272

 ***WARNING: ELEMENT LABEL 272 HAS BEEN USED MORE THAN ONCE. ONLY THE LAST 
             DEFINITION IS CONSIDERED.
  *ELEMENT, TYPE=C3D8, ELSET=Elset299

 ***WARNING: ELEMENT LABEL 299 HAS BEEN USED MORE THAN ONCE. ONLY THE LAST 
             DEFINITION IS CONSIDERED.
  *ELEMENT, TYPE=C3D8, ELSET=Elset300

 ***WARNING: ELEMENT LABEL 300 HAS BEEN USED MORE THAN ONCE. ONLY THE LAST 
             DEFINITION IS CONSIDERED.
  *ELEMENT, TYPE=C3D8, ELSET=Elset301

 ***WARNING: ELEMENT LABEL 301 HAS BEEN USED MORE THAN ONCE. ONLY THE LAST 
             DEFINITION IS CONSIDERED.
  *ELEMENT, TYPE=C3D8, ELSET=Elset302

 ***WARNING: ELEMENT LABEL 302 HAS BEEN USED MORE THAN ONCE. ONLY THE LAST 
             DEFINITION IS CONSIDERED.
  *ELEMENT, TYPE=C3D8, ELSET=Elset303

 ***WARNING: ELEMENT LABEL 303 HAS BEEN USED MORE THAN ONCE. ONLY THE LAST 
             DEFINITION IS CONSIDERED.
  *ELEMENT, TYPE=C3D8, ELSET=Elset304

 ***WARNING: ELEMENT LABEL 304 HAS BEEN USED MORE THAN ONCE. ONLY THE LAST 
             DEFINITION IS CONSIDERED.
  *ELEMENT, TYPE=C3D8, ELSET=Elset305

 ***WARNING: ELEMENT LABEL 305 HAS BEEN USED MORE THAN ONCE. ONLY THE LAST 
             DEFINITION IS CONSIDERED.
  *ELEMENT, TYPE=C3D8, ELSET=Elset306

 ***WARNING: ELEMENT LABEL 306 HAS BEEN USED MORE THAN ONCE. ONLY THE LAST 
             DEFINITION IS CONSIDERED.
  *ELEMENT, TYPE=C3D8, ELSET=Elset307

 ***WARNING: ELEMENT LABEL 307 HAS BEEN USED MORE THAN ONCE. ONLY THE LAST 
             DEFINITION IS CONSIDERED.
  *ELEMENT, TYPE=C3D8, ELSET=Elset308

 ***WARNING: ELEMENT LABEL 308 HAS BEEN USED MORE THAN ONCE. ONLY THE LAST 
             DEFINITION IS CONSIDERED.
  *ELEMENT, TYPE=C3D8, ELSET=Elset309

 ***WARNING: ELEMENT LABEL 309 HAS BEEN USED MORE THAN ONCE. ONLY THE LAST 
             DEFINITION IS CONSIDERED.
  *ELEMENT, TYPE=C3D8, ELSET=Elset330

 ***WARNING: ELEMENT LABEL 330 HAS BEEN USED MORE THAN ONCE. ONLY THE LAST 
             DEFINITION IS CONSIDERED.
  *ELEMENT, TYPE=C3D8, ELSET=Elset331

 ***WARNING: ELEMENT LABEL 331 HAS BEEN USED MORE THAN ONCE. ONLY THE LAST 
             DEFINITION IS CONSIDERED.
  *ELEMENT, TYPE=C3D8, ELSET=Elset332

 ***WARNING: ELEMENT LABEL 332 HAS BEEN USED MORE THAN ONCE. ONLY THE LAST 
             DEFINITION IS CONSIDERED.
  *ELEMENT, TYPE=C3D8, ELSET=Elset333

 ***WARNING: ELEMENT LABEL 333 HAS BEEN USED MORE THAN ONCE. ONLY THE LAST 
             DEFINITION IS CONSIDERED.
  *ELEMENT, TYPE=C3D8, ELSET=Elset334

 ***WARNING: ELEMENT LABEL 334 HAS BEEN USED MORE THAN ONCE. ONLY THE LAST 
             DEFINITION IS CONSIDERED.
  *ELEMENT, TYPE=C3D8, ELSET=Elset335

 ***WARNING: ELEMENT LABEL 335 HAS BEEN USED MORE THAN ONCE. ONLY THE LAST 
             DEFINITION IS CONSIDERED.
  *ELEMENT, TYPE=C3D8, ELSET=Elset336

 ***WARNING: ELEMENT LABEL 336 HAS BEEN USED MORE THAN ONCE. ONLY THE LAST 
             DEFINITION IS CONSIDERED.
  *ELEMENT, TYPE=C3D8, ELSET=Elset337

 ***WARNING: ELEMENT LABEL 337 HAS BEEN USED MORE THAN ONCE. ONLY THE LAST 
             DEFINITION IS CONSIDERED.
  *ELEMENT, TYPE=C3D8, ELSET=Elset338

 ***WARNING: ELEMENT LABEL 338 HAS BEEN USED MORE THAN ONCE. ONLY THE LAST 
             DEFINITION IS CONSIDERED.
  *ELEMENT, TYPE=C3D8, ELSET=Elset339

 ***WARNING: ELEMENT LABEL 339 HAS BEEN USED MORE THAN ONCE. ONLY THE LAST 
             DEFINITION IS CONSIDERED.
  *ELEMENT, TYPE=C3D8, ELSET=Elset340

 ***WARNING: ELEMENT LABEL 340 HAS BEEN USED MORE THAN ONCE. ONLY THE LAST 
             DEFINITION IS CONSIDERED.
  *ELEMENT, TYPE=C3D8, ELSET=Elset341

 ***WARNING: ELEMENT LABEL 341 HAS BEEN USED MORE THAN ONCE. ONLY THE LAST 
             DEFINITION IS CONSIDERED.
  *ELEMENT, TYPE=C3D8, ELSET=Elset342

 ***WARNING: ELEMENT LABEL 342 HAS BEEN USED MORE THAN ONCE. ONLY THE LAST 
             DEFINITION IS CONSIDERED.
  *ELEMENT, TYPE=C3D8, ELSET=Elset343

 ***WARNING: ELEMENT LABEL 343 HAS BEEN USED MORE THAN ONCE. ONLY THE LAST 
             DEFINITION IS CONSIDERED.
  *ELEMENT, TYPE=C3D8, ELSET=Elset361

 ***WARNING: ELEMENT LABEL 361 HAS BEEN USED MORE THAN ONCE. ONLY THE LAST 
             DEFINITION IS CONSIDERED.
  *ELEMENT, TYPE=C3D8, ELSET=Elset362

 ***WARNING: ELEMENT LABEL 362 HAS BEEN USED MORE THAN ONCE. ONLY THE LAST 
             DEFINITION IS CONSIDERED.
  *ELEMENT, TYPE=C3D8, ELSET=Elset363

 ***WARNING: ELEMENT LABEL 363 HAS BEEN USED MORE THAN ONCE. ONLY THE LAST 
             DEFINITION IS CONSIDERED.
  *ELEMENT, TYPE=C3D8, ELSET=Elset364

 ***WARNING: ELEMENT LABEL 364 HAS BEEN USED MORE THAN ONCE. ONLY THE LAST 
             DEFINITION IS CONSIDERED.
  *ELEMENT, TYPE=C3D8, ELSET=Elset365

 ***WARNING: ELEMENT LABEL 365 HAS BEEN USED MORE THAN ONCE. ONLY THE LAST 
             DEFINITION IS CONSIDERED.
  *ELEMENT, TYPE=C3D8, ELSET=Elset366

 ***WARNING: ELEMENT LABEL 366 HAS BEEN USED MORE THAN ONCE. ONLY THE LAST 
             DEFINITION IS CONSIDERED.
  *ELEMENT, TYPE=C3D8, ELSET=Elset367

 ***WARNING: ELEMENT LABEL 367 HAS BEEN USED MORE THAN ONCE. ONLY THE LAST 
             DEFINITION IS CONSIDERED.
  *ELEMENT, TYPE=C3D8, ELSET=Elset368

 ***WARNING: ELEMENT LABEL 368 HAS BEEN USED MORE THAN ONCE. ONLY THE LAST 
             DEFINITION IS CONSIDERED.
  *ELEMENT, TYPE=C3D8, ELSET=Elset369

 ***WARNING: ELEMENT LABEL 369 HAS BEEN USED MORE THAN ONCE. ONLY THE LAST 
             DEFINITION IS CONSIDERED.
  *ELEMENT, TYPE=C3D8, ELSET=Elset370

 ***WARNING: ELEMENT LABEL 370 HAS BEEN USED MORE THAN ONCE. ONLY THE LAST 
             DEFINITION IS CONSIDERED.
  *ELEMENT, TYPE=C3D8, ELSET=Elset371

 ***WARNING: ELEMENT LABEL 371 HAS BEEN USED MORE THAN ONCE. ONLY THE LAST 
             DEFINITION IS CONSIDERED.
  *ELEMENT, TYPE=C3D8, ELSET=Elset372

 ***WARNING: ELEMENT LABEL 372 HAS BEEN USED MORE THAN ONCE. ONLY THE LAST 
             DEFINITION IS CONSIDERED.
  *ELEMENT, TYPE=C3D8, ELSET=Elset373

 ***WARNING: ELEMENT LABEL 373 HAS BEEN USED MORE THAN ONCE. ONLY THE LAST 
             DEFINITION IS CONSIDERED.
  *ELEMENT, TYPE=C3D8, ELSET=Elset374

 ***WARNING: ELEMENT LABEL 374 HAS BEEN USED MORE THAN ONCE. ONLY THE LAST 
             DEFINITION IS CONSIDERED.
  *ELEMENT, TYPE=C3D8, ELSET=Elset375

 ***WARNING: ELEMENT LABEL 375 HAS BEEN USED MORE THAN ONCE. ONLY THE LAST 
             DEFINITION IS CONSIDERED.
  *ELEMENT, TYPE=C3D8, ELSET=Elset376

 ***WARNING: ELEMENT LABEL 376 HAS BEEN USED MORE THAN ONCE. ONLY THE LAST 
             DEFINITION IS CONSIDERED.
  *ELEMENT, TYPE=C3D8, ELSET=Elset392

 ***WARNING: ELEMENT LABEL 392 HAS BEEN USED MORE THAN ONCE. ONLY THE LAST 
             DEFINITION IS CONSIDERED.
  *ELEMENT, TYPE=C3D8, ELSET=Elset393

 ***WARNING: ELEMENT LABEL 393 HAS BEEN USED MORE THAN ONCE. ONLY THE LAST 
             DEFINITION IS CONSIDERED.
  *ELEMENT, TYPE=C3D8, ELSET=Elset394

 ***WARNING: ELEMENT LABEL 394 HAS BEEN USED MORE THAN ONCE. ONLY THE LAST 
             DEFINITION IS CONSIDERED.
  *ELEMENT, TYPE=C3D8, ELSET=Elset395

 ***WARNING: ELEMENT LABEL 395 HAS BEEN USED MORE THAN ONCE. ONLY THE LAST 
             DEFINITION IS CONSIDERED.
  *ELEMENT, TYPE=C3D8, ELSET=Elset396

 ***WARNING: ELEMENT LABEL 396 HAS BEEN USED MORE THAN ONCE. ONLY THE LAST 
             DEFINITION IS CONSIDERED.
  *ELEMENT, TYPE=C3D8, ELSET=Elset397

 ***WARNING: ELEMENT LABEL 397 HAS BEEN USED MORE THAN ONCE. ONLY THE LAST 
             DEFINITION IS CONSIDERED.
  *ELEMENT, TYPE=C3D8, ELSET=Elset398

 ***WARNING: ELEMENT LABEL 398 HAS BEEN USED MORE THAN ONCE. ONLY THE LAST 
             DEFINITION IS CONSIDERED.
  *ELEMENT, TYPE=C3D8, ELSET=Elset399

 ***WARNING: ELEMENT LABEL 399 HAS BEEN USED MORE THAN ONCE. ONLY THE LAST 
             DEFINITION IS CONSIDERED.
  *ELEMENT, TYPE=C3D8, ELSET=Elset400

 ***WARNING: ELEMENT LABEL 400 HAS BEEN USED MORE THAN ONCE. ONLY THE LAST 
             DEFINITION IS CONSIDERED.
  *ELEMENT, TYPE=C3D8, ELSET=Elset401

 ***WARNING: ELEMENT LABEL 401 HAS BEEN USED MORE THAN ONCE. ONLY THE LAST 
             DEFINITION IS CONSIDERED.
  *ELEMENT, TYPE=C3D8, ELSET=Elset402

 ***WARNING: ELEMENT LABEL 402 HAS BEEN USED MORE THAN ONCE. ONLY THE LAST 
             DEFINITION IS CONSIDERED.
  *ELEMENT, TYPE=C3D8, ELSET=Elset403

 ***WARNING: ELEMENT LABEL 403 HAS BEEN USED MORE THAN ONCE. ONLY THE LAST 
             DEFINITION IS CONSIDERED.
  *ELEMENT, TYPE=C3D8, ELSET=Elset404

 ***WARNING: ELEMENT LABEL 404 HAS BEEN USED MORE THAN ONCE. ONLY THE LAST 
             DEFINITION IS CONSIDERED.
  *ELEMENT, TYPE=C3D8, ELSET=Elset405

 ***WARNING: ELEMENT LABEL 405 HAS BEEN USED MORE THAN ONCE. ONLY THE LAST 
             DEFINITION IS CONSIDERED.
  *ELEMENT, TYPE=C3D8, ELSET=Elset406

 ***WARNING: ELEMENT LABEL 406 HAS BEEN USED MORE THAN ONCE. ONLY THE LAST 
             DEFINITION IS CONSIDERED.
  *ELEMENT, TYPE=C3D8, ELSET=Elset407

 ***WARNING: ELEMENT LABEL 407 HAS BEEN USED MORE THAN ONCE. ONLY THE LAST 
             DEFINITION IS CONSIDERED.
  *ELEMENT, TYPE=C3D8, ELSET=Elset408

 ***WARNING: ELEMENT LABEL 408 HAS BEEN USED MORE THAN ONCE. ONLY THE LAST 
             DEFINITION IS CONSIDERED.
  *ELEMENT, TYPE=C3D8, ELSET=Elset409

 ***WARNING: ELEMENT LABEL 409 HAS BEEN USED MORE THAN ONCE. ONLY THE LAST 
             DEFINITION IS CONSIDERED.
  *ELEMENT, TYPE=C3D8, ELSET=Elset424

 ***WARNING: ELEMENT LABEL 424 HAS BEEN USED MORE THAN ONCE. ONLY THE LAST 
             DEFINITION IS CONSIDERED.
  *ELEMENT, TYPE=C3D8, ELSET=Elset425

 ***WARNING: ELEMENT LABEL 425 HAS BEEN USED MORE THAN ONCE. ONLY THE LAST 
             DEFINITION IS CONSIDERED.
  *ELEMENT, TYPE=C3D8, ELSET=Elset426

 ***WARNING: ELEMENT LABEL 426 HAS BEEN USED MORE THAN ONCE. ONLY THE LAST 
             DEFINITION IS CONSIDERED.
  *ELEMENT, TYPE=C3D8, ELSET=Elset427

 ***WARNING: ELEMENT LABEL 427 HAS BEEN USED MORE THAN ONCE. ONLY THE LAST 
             DEFINITION IS CONSIDERED.
  *ELEMENT, TYPE=C3D8, ELSET=Elset428

 ***WARNING: ELEMENT LABEL 428 HAS BEEN USED MORE THAN ONCE. ONLY THE LAST 
             DEFINITION IS CONSIDERED.
  *ELEMENT, TYPE=C3D8, ELSET=Elset429

 ***WARNING: ELEMENT LABEL 429 HAS BEEN USED MORE THAN ONCE. ONLY THE LAST 
             DEFINITION IS CONSIDERED.
  *ELEMENT, TYPE=C3D8, ELSET=Elset430

 ***WARNING: ELEMENT LABEL 430 HAS BEEN USED MORE THAN ONCE. ONLY THE LAST 
             DEFINITION IS CONSIDERED.
  *ELEMENT, TYPE=C3D8, ELSET=Elset431

 ***WARNING: ELEMENT LABEL 431 HAS BEEN USED MORE THAN ONCE. ONLY THE LAST 
             DEFINITION IS CONSIDERED.
  *ELEMENT, TYPE=C3D8, ELSET=Elset432

 ***WARNING: ELEMENT LABEL 432 HAS BEEN USED MORE THAN ONCE. ONLY THE LAST 
             DEFINITION IS CONSIDERED.
  *ELEMENT, TYPE=C3D8, ELSET=Elset433

 ***WARNING: ELEMENT LABEL 433 HAS BEEN USED MORE THAN ONCE. ONLY THE LAST 
             DEFINITION IS CONSIDERED.
  *ELEMENT, TYPE=C3D8, ELSET=Elset434

 ***WARNING: ELEMENT LABEL 434 HAS BEEN USED MORE THAN ONCE. ONLY THE LAST 
             DEFINITION IS CONSIDERED.
  *ELEMENT, TYPE=C3D8, ELSET=Elset435

 ***WARNING: ELEMENT LABEL 435 HAS BEEN USED MORE THAN ONCE. ONLY THE LAST 
             DEFINITION IS CONSIDERED.
  *ELEMENT, TYPE=C3D8, ELSET=Elset436

 ***WARNING: ELEMENT LABEL 436 HAS BEEN USED MORE THAN ONCE. ONLY THE LAST 
             DEFINITION IS CONSIDERED.
  *ELEMENT, TYPE=C3D8, ELSET=Elset437

 ***WARNING: ELEMENT LABEL 437 HAS BEEN USED MORE THAN ONCE. ONLY THE LAST 
             DEFINITION IS CONSIDERED.
  *ELEMENT, TYPE=C3D8, ELSET=Elset438

 ***WARNING: ELEMENT LABEL 438 HAS BEEN USED MORE THAN ONCE. ONLY THE LAST 
             DEFINITION IS CONSIDERED.
  *ELEMENT, TYPE=C3D8, ELSET=Elset439

 ***WARNING: ELEMENT LABEL 439 HAS BEEN USED MORE THAN ONCE. ONLY THE LAST 
             DEFINITION IS CONSIDERED.
  *ELEMENT, TYPE=C3D8, ELSET=Elset440

 ***WARNING: ELEMENT LABEL 440 HAS BEEN USED MORE THAN ONCE. ONLY THE LAST 
             DEFINITION IS CONSIDERED.
  *ELEMENT, TYPE=C3D8, ELSET=Elset441

 ***WARNING: ELEMENT LABEL 441 HAS BEEN USED MORE THAN ONCE. ONLY THE LAST 
             DEFINITION IS CONSIDERED.
  *ELEMENT, TYPE=C3D8, ELSET=Elset455

 ***WARNING: ELEMENT LABEL 455 HAS BEEN USED MORE THAN ONCE. ONLY THE LAST 
             DEFINITION IS CONSIDERED.
  *ELEMENT, TYPE=C3D8, ELSET=Elset456

 ***WARNING: ELEMENT LABEL 456 HAS BEEN USED MORE THAN ONCE. ONLY THE LAST 
             DEFINITION IS CONSIDERED.
  *ELEMENT, TYPE=C3D8, ELSET=Elset457

 ***WARNING: ELEMENT LABEL 457 HAS BEEN USED MORE THAN ONCE. ONLY THE LAST 
             DEFINITION IS CONSIDERED.
  *ELEMENT, TYPE=C3D8, ELSET=Elset458

 ***WARNING: ELEMENT LABEL 458 HAS BEEN USED MORE THAN ONCE. ONLY THE LAST 
             DEFINITION IS CONSIDERED.
  *ELEMENT, TYPE=C3D8, ELSET=Elset459

 ***WARNING: ELEMENT LABEL 459 HAS BEEN USED MORE THAN ONCE. ONLY THE LAST 
             DEFINITION IS CONSIDERED.
  *ELEMENT, TYPE=C3D8, ELSET=Elset460

 ***WARNING: ELEMENT LABEL 460 HAS BEEN USED MORE THAN ONCE. ONLY THE LAST 
             DEFINITION IS CONSIDERED.
  *ELEMENT, TYPE=C3D8, ELSET=Elset461

 ***WARNING: ELEMENT LABEL 461 HAS BEEN USED MORE THAN ONCE. ONLY THE LAST 
             DEFINITION IS CONSIDERED.
  *ELEMENT, TYPE=C3D8, ELSET=Elset462

 ***WARNING: ELEMENT LABEL 462 HAS BEEN USED MORE THAN ONCE. ONLY THE LAST 
             DEFINITION IS CONSIDERED.
  *ELEMENT, TYPE=C3D8, ELSET=Elset463

 ***WARNING: ELEMENT LABEL 463 HAS BEEN USED MORE THAN ONCE. ONLY THE LAST 
             DEFINITION IS CONSIDERED.
  *ELEMENT, TYPE=C3D8, ELSET=Elset464

 ***WARNING: ELEMENT LABEL 464 HAS BEEN USED MORE THAN ONCE. ONLY THE LAST 
             DEFINITION IS CONSIDERED.
  *ELEMENT, TYPE=C3D8, ELSET=Elset465

 ***WARNING: ELEMENT LABEL 465 HAS BEEN USED MORE THAN ONCE. ONLY THE LAST 
             DEFINITION IS CONSIDERED.
  *ELEMENT, TYPE=C3D8, ELSET=Elset466

 ***WARNING: ELEMENT LABEL 466 HAS BEEN USED MORE THAN ONCE. ONLY THE LAST 
             DEFINITION IS CONSIDERED.
  *ELEMENT, TYPE=C3D8, ELSET=Elset467

 ***WARNING: ELEMENT LABEL 467 HAS BEEN USED MORE THAN ONCE. ONLY THE LAST 
             DEFINITION IS CONSIDERED.
  *ELEMENT, TYPE=C3D8, ELSET=Elset468

 ***WARNING: ELEMENT LABEL 468 HAS BEEN USED MORE THAN ONCE. ONLY THE LAST 
             DEFINITION IS CONSIDERED.
  *ELEMENT, TYPE=C3D8, ELSET=Elset469

 ***WARNING: ELEMENT LABEL 469 HAS BEEN USED MORE THAN ONCE. ONLY THE LAST 
             DEFINITION IS CONSIDERED.
  *ELEMENT, TYPE=C3D8, ELSET=Elset470

 ***WARNING: ELEMENT LABEL 470 HAS BEEN USED MORE THAN ONCE. ONLY THE LAST 
             DEFINITION IS CONSIDERED.
  *ELEMENT, TYPE=C3D8, ELSET=Elset471

 ***WARNING: ELEMENT LABEL 471 HAS BEEN USED MORE THAN ONCE. ONLY THE LAST 
             DEFINITION IS CONSIDERED.
  *ELEMENT, TYPE=C3D8, ELSET=Elset472

 ***WARNING: ELEMENT LABEL 472 HAS BEEN USED MORE THAN ONCE. ONLY THE LAST 
             DEFINITION IS CONSIDERED.
  *ELEMENT, TYPE=C3D8, ELSET=Elset473

 ***WARNING: ELEMENT LABEL 473 HAS BEEN USED MORE THAN ONCE. ONLY THE LAST 
             DEFINITION IS CONSIDERED.
  *ELEMENT, TYPE=C3D8, ELSET=Elset474

 ***WARNING: ELEMENT LABEL 474 HAS BEEN USED MORE THAN ONCE. ONLY THE LAST 
             DEFINITION IS CONSIDERED.
  *ELEMENT, TYPE=C3D8, ELSET=Elset487

 ***WARNING: ELEMENT LABEL 487 HAS BEEN USED MORE THAN ONCE. ONLY THE LAST 
             DEFINITION IS CONSIDERED.
  *ELEMENT, TYPE=C3D8, ELSET=Elset488

 ***WARNING: ELEMENT LABEL 488 HAS BEEN USED MORE THAN ONCE. ONLY THE LAST 
             DEFINITION IS CONSIDERED.
  *ELEMENT, TYPE=C3D8, ELSET=Elset489

 ***WARNING: ELEMENT LABEL 489 HAS BEEN USED MORE THAN ONCE. ONLY THE LAST 
             DEFINITION IS CONSIDERED.
  *ELEMENT, TYPE=C3D8, ELSET=Elset490

 ***WARNING: ELEMENT LABEL 490 HAS BEEN USED MORE THAN ONCE. ONLY THE LAST 
             DEFINITION IS CONSIDERED.
  *ELEMENT, TYPE=C3D8, ELSET=Elset491

 ***WARNING: ELEMENT LABEL 491 HAS BEEN USED MORE THAN ONCE. ONLY THE LAST 
             DEFINITION IS CONSIDERED.
  *ELEMENT, TYPE=C3D8, ELSET=Elset492

 ***WARNING: ELEMENT LABEL 492 HAS BEEN USED MORE THAN ONCE. ONLY THE LAST 
             DEFINITION IS CONSIDERED.
  *ELEMENT, TYPE=C3D8, ELSET=Elset493

 ***WARNING: ELEMENT LABEL 493 HAS BEEN USED MORE THAN ONCE. ONLY THE LAST 
             DEFINITION IS CONSIDERED.
  *ELEMENT, TYPE=C3D8, ELSET=Elset494

 ***WARNING: ELEMENT LABEL 494 HAS BEEN USED MORE THAN ONCE. ONLY THE LAST 
             DEFINITION IS CONSIDERED.
  *ELEMENT, TYPE=C3D8, ELSET=Elset495

 ***WARNING: ELEMENT LABEL 495 HAS BEEN USED MORE THAN ONCE. ONLY THE LAST 
             DEFINITION IS CONSIDERED.
  *ELEMENT, TYPE=C3D8, ELSET=Elset496

 ***WARNING: ELEMENT LABEL 496 HAS BEEN USED MORE THAN ONCE. ONLY THE LAST 
             DEFINITION IS CONSIDERED.
  *ELEMENT, TYPE=C3D8, ELSET=Elset497

 ***WARNING: ELEMENT LABEL 497 HAS BEEN USED MORE THAN ONCE. ONLY THE LAST 
             DEFINITION IS CONSIDERED.
  *ELEMENT, TYPE=C3D8, ELSET=Elset498

 ***WARNING: ELEMENT LABEL 498 HAS BEEN USED MORE THAN ONCE. ONLY THE LAST 
             DEFINITION IS CONSIDERED.
  *ELEMENT, TYPE=C3D8, ELSET=Elset499

 ***WARNING: ELEMENT LABEL 499 HAS BEEN USED MORE THAN ONCE. ONLY THE LAST 
             DEFINITION IS CONSIDERED.
  *ELEMENT, TYPE=C3D8, ELSET=Elset500

 ***WARNING: ELEMENT LABEL 500 HAS BEEN USED MORE THAN ONCE. ONLY THE LAST 
             DEFINITION IS CONSIDERED.
  *ELEMENT, TYPE=C3D8, ELSET=Elset501

 ***WARNING: ELEMENT LABEL 501 HAS BEEN USED MORE THAN ONCE. ONLY THE LAST 
             DEFINITION IS CONSIDERED.
  *ELEMENT, TYPE=C3D8, ELSET=Elset502

 ***WARNING: ELEMENT LABEL 502 HAS BEEN USED MORE THAN ONCE. ONLY THE LAST 
             DEFINITION IS CONSIDERED.
  *ELEMENT, TYPE=C3D8, ELSET=Elset503

 ***WARNING: ELEMENT LABEL 503 HAS BEEN USED MORE THAN ONCE. ONLY THE LAST 
             DEFINITION IS CONSIDERED.
  *ELEMENT, TYPE=C3D8, ELSET=Elset504

 ***WARNING: ELEMENT LABEL 504 HAS BEEN USED MORE THAN ONCE. ONLY THE LAST 
             DEFINITION IS CONSIDERED.
  *ELEMENT, TYPE=C3D8, ELSET=Elset505

 ***WARNING: ELEMENT LABEL 505 HAS BEEN USED MORE THAN ONCE. ONLY THE LAST 
             DEFINITION IS CONSIDERED.
  *ELEMENT, TYPE=C3D8, ELSET=Elset506

 ***WARNING: ELEMENT LABEL 506 HAS BEEN USED MORE THAN ONCE. ONLY THE LAST 
             DEFINITION IS CONSIDERED.
  *ELEMENT, TYPE=C3D8, ELSET=Elset519

 ***WARNING: ELEMENT LABEL 519 HAS BEEN USED MORE THAN ONCE. ONLY THE LAST 
             DEFINITION IS CONSIDERED.
  *ELEMENT, TYPE=C3D8, ELSET=Elset520

 ***WARNING: ELEMENT LABEL 520 HAS BEEN USED MORE THAN ONCE. ONLY THE LAST 
             DEFINITION IS CONSIDERED.
  *ELEMENT, TYPE=C3D8, ELSET=Elset521

 ***WARNING: ELEMENT LABEL 521 HAS BEEN USED MORE THAN ONCE. ONLY THE LAST 
             DEFINITION IS CONSIDERED.
  *ELEMENT, TYPE=C3D8, ELSET=Elset522

 ***WARNING: ELEMENT LABEL 522 HAS BEEN USED MORE THAN ONCE. ONLY THE LAST 
             DEFINITION IS CONSIDERED.
  *ELEMENT, TYPE=C3D8, ELSET=Elset523

 ***WARNING: ELEMENT LABEL 523 HAS BEEN USED MORE THAN ONCE. ONLY THE LAST 
             DEFINITION IS CONSIDERED.
  *ELEMENT, TYPE=C3D8, ELSET=Elset524

 ***WARNING: ELEMENT LABEL 524 HAS BEEN USED MORE THAN ONCE. ONLY THE LAST 
             DEFINITION IS CONSIDERED.
  *ELEMENT, TYPE=C3D8, ELSET=Elset525

 ***WARNING: ELEMENT LABEL 525 HAS BEEN USED MORE THAN ONCE. ONLY THE LAST 
             DEFINITION IS CONSIDERED.
  *ELEMENT, TYPE=C3D8, ELSET=Elset526

 ***WARNING: ELEMENT LABEL 526 HAS BEEN USED MORE THAN ONCE. ONLY THE LAST 
             DEFINITION IS CONSIDERED.
  *ELEMENT, TYPE=C3D8, ELSET=Elset527

 ***WARNING: ELEMENT LABEL 527 HAS BEEN USED MORE THAN ONCE. ONLY THE LAST 
             DEFINITION IS CONSIDERED.
  *ELEMENT, TYPE=C3D8, ELSET=Elset528

 ***WARNING: ELEMENT LABEL 528 HAS BEEN USED MORE THAN ONCE. ONLY THE LAST 
             DEFINITION IS CONSIDERED.
  *ELEMENT, TYPE=C3D8, ELSET=Elset529

 ***WARNING: ELEMENT LABEL 529 HAS BEEN USED MORE THAN ONCE. ONLY THE LAST 
             DEFINITION IS CONSIDERED.
  *ELEMENT, TYPE=C3D8, ELSET=Elset530

 ***WARNING: ELEMENT LABEL 530 HAS BEEN USED MORE THAN ONCE. ONLY THE LAST 
             DEFINITION IS CONSIDERED.
  *ELEMENT, TYPE=C3D8, ELSET=Elset531

 ***WARNING: ELEMENT LABEL 531 HAS BEEN USED MORE THAN ONCE. ONLY THE LAST 
             DEFINITION IS CONSIDERED.
  *ELEMENT, TYPE=C3D8, ELSET=Elset532

 ***WARNING: ELEMENT LABEL 532 HAS BEEN USED MORE THAN ONCE. ONLY THE LAST 
             DEFINITION IS CONSIDERED.
  *ELEMENT, TYPE=C3D8, ELSET=Elset533

 ***WARNING: ELEMENT LABEL 533 HAS BEEN USED MORE THAN ONCE. ONLY THE LAST 
             DEFINITION IS CONSIDERED.
  *ELEMENT, TYPE=C3D8, ELSET=Elset534

 ***WARNING: ELEMENT LABEL 534 HAS BEEN USED MORE THAN ONCE. ONLY THE LAST 
             DEFINITION IS CONSIDERED.
  *ELEMENT, TYPE=C3D8, ELSET=Elset535

 ***WARNING: ELEMENT LABEL 535 HAS BEEN USED MORE THAN ONCE. ONLY THE LAST 
             DEFINITION IS CONSIDERED.
  *ELEMENT, TYPE=C3D8, ELSET=Elset536

 ***WARNING: ELEMENT LABEL 536 HAS BEEN USED MORE THAN ONCE. ONLY THE LAST 
             DEFINITION IS CONSIDERED.
  *ELEMENT, TYPE=C3D8, ELSET=Elset537

 ***WARNING: ELEMENT LABEL 537 HAS BEEN USED MORE THAN ONCE. ONLY THE LAST 
             DEFINITION IS CONSIDERED.
  *ELEMENT, TYPE=C3D8, ELSET=Elset538

 ***WARNING: ELEMENT LABEL 538 HAS BEEN USED MORE THAN ONCE. ONLY THE LAST 
             DEFINITION IS CONSIDERED.
  *ELEMENT, TYPE=C3D8, ELSET=Elset539

 ***WARNING: ELEMENT LABEL 539 HAS BEEN USED MORE THAN ONCE. ONLY THE LAST 
             DEFINITION IS CONSIDERED.
  *ELEMENT, TYPE=C3D8, ELSET=Elset551

 ***WARNING: ELEMENT LABEL 551 HAS BEEN USED MORE THAN ONCE. ONLY THE LAST 
             DEFINITION IS CONSIDERED.
  *ELEMENT, TYPE=C3D8, ELSET=Elset552

 ***WARNING: ELEMENT LABEL 552 HAS BEEN USED MORE THAN ONCE. ONLY THE LAST 
             DEFINITION IS CONSIDERED.
  *ELEMENT, TYPE=C3D8, ELSET=Elset553

 ***WARNING: ELEMENT LABEL 553 HAS BEEN USED MORE THAN ONCE. ONLY THE LAST 
             DEFINITION IS CONSIDERED.
  *ELEMENT, TYPE=C3D8, ELSET=Elset554

 ***WARNING: ELEMENT LABEL 554 HAS BEEN USED MORE THAN ONCE. ONLY THE LAST 
             DEFINITION IS CONSIDERED.
  *ELEMENT, TYPE=C3D8, ELSET=Elset555

 ***WARNING: ELEMENT LABEL 555 HAS BEEN USED MORE THAN ONCE. ONLY THE LAST 
             DEFINITION IS CONSIDERED.
  *ELEMENT, TYPE=C3D8, ELSET=Elset556

 ***WARNING: ELEMENT LABEL 556 HAS BEEN USED MORE THAN ONCE. ONLY THE LAST 
             DEFINITION IS CONSIDERED.
  *ELEMENT, TYPE=C3D8, ELSET=Elset557

 ***WARNING: ELEMENT LABEL 557 HAS BEEN USED MORE THAN ONCE. ONLY THE LAST 
             DEFINITION IS CONSIDERED.
  *ELEMENT, TYPE=C3D8, ELSET=Elset558

 ***WARNING: ELEMENT LABEL 558 HAS BEEN USED MORE THAN ONCE. ONLY THE LAST 
             DEFINITION IS CONSIDERED.
  *ELEMENT, TYPE=C3D8, ELSET=Elset559

 ***WARNING: ELEMENT LABEL 559 HAS BEEN USED MORE THAN ONCE. ONLY THE LAST 
             DEFINITION IS CONSIDERED.
  *ELEMENT, TYPE=C3D8, ELSET=Elset560

 ***WARNING: ELEMENT LABEL 560 HAS BEEN USED MORE THAN ONCE. ONLY THE LAST 
             DEFINITION IS CONSIDERED.
  *ELEMENT, TYPE=C3D8, ELSET=Elset561

 ***WARNING: ELEMENT LABEL 561 HAS BEEN USED MORE THAN ONCE. ONLY THE LAST 
             DEFINITION IS CONSIDERED.
  *ELEMENT, TYPE=C3D8, ELSET=Elset562

 ***WARNING: ELEMENT LABEL 562 HAS BEEN USED MORE THAN ONCE. ONLY THE LAST 
             DEFINITION IS CONSIDERED.
  *ELEMENT, TYPE=C3D8, ELSET=Elset563

 ***WARNING: ELEMENT LABEL 563 HAS BEEN USED MORE THAN ONCE. ONLY THE LAST 
             DEFINITION IS CONSIDERED.
  *ELEMENT, TYPE=C3D8, ELSET=Elset564

 ***WARNING: ELEMENT LABEL 564 HAS BEEN USED MORE THAN ONCE. ONLY THE LAST 
             DEFINITION IS CONSIDERED.
  *ELEMENT, TYPE=C3D8, ELSET=Elset565

 ***WARNING: ELEMENT LABEL 565 HAS BEEN USED MORE THAN ONCE. ONLY THE LAST 
             DEFINITION IS CONSIDERED.
  *ELEMENT, TYPE=C3D8, ELSET=Elset566

 ***WARNING: ELEMENT LABEL 566 HAS BEEN USED MORE THAN ONCE. ONLY THE LAST 
             DEFINITION IS CONSIDERED.
  *ELEMENT, TYPE=C3D8, ELSET=Elset567

 ***WARNING: ELEMENT LABEL 567 HAS BEEN USED MORE THAN ONCE. ONLY THE LAST 
             DEFINITION IS CONSIDERED.
  *ELEMENT, TYPE=C3D8, ELSET=Elset568

 ***WARNING: ELEMENT LABEL 568 HAS BEEN USED MORE THAN ONCE. ONLY THE LAST 
             DEFINITION IS CONSIDERED.
  *ELEMENT, TYPE=C3D8, ELSET=Elset569

 ***WARNING: ELEMENT LABEL 569 HAS BEEN USED MORE THAN ONCE. ONLY THE LAST 
             DEFINITION IS CONSIDERED.
  *ELEMENT, TYPE=C3D8, ELSET=Elset570

 ***WARNING: ELEMENT LABEL 570 HAS BEEN USED MORE THAN ONCE. ONLY THE LAST 
             DEFINITION IS CONSIDERED.
  *ELEMENT, TYPE=C3D8, ELSET=Elset571

 ***WARNING: ELEMENT LABEL 571 HAS BEEN USED MORE THAN ONCE. ONLY THE LAST 
             DEFINITION IS CONSIDERED.
  *ELEMENT, TYPE=C3D8, ELSET=Elset582

 ***WARNING: ELEMENT LABEL 582 HAS BEEN USED MORE THAN ONCE. ONLY THE LAST 
             DEFINITION IS CONSIDERED.
  *ELEMENT, TYPE=C3D8, ELSET=Elset583

 ***WARNING: ELEMENT LABEL 583 HAS BEEN USED MORE THAN ONCE. ONLY THE LAST 
             DEFINITION IS CONSIDERED.
  *ELEMENT, TYPE=C3D8, ELSET=Elset584

 ***WARNING: ELEMENT LABEL 584 HAS BEEN USED MORE THAN ONCE. ONLY THE LAST 
             DEFINITION IS CONSIDERED.
  *ELEMENT, TYPE=C3D8, ELSET=Elset585

 ***WARNING: ELEMENT LABEL 585 HAS BEEN USED MORE THAN ONCE. ONLY THE LAST 
             DEFINITION IS CONSIDERED.
  *ELEMENT, TYPE=C3D8, ELSET=Elset586

 ***WARNING: ELEMENT LABEL 586 HAS BEEN USED MORE THAN ONCE. ONLY THE LAST 
             DEFINITION IS CONSIDERED.
  *ELEMENT, TYPE=C3D8, ELSET=Elset587

 ***WARNING: ELEMENT LABEL 587 HAS BEEN USED MORE THAN ONCE. ONLY THE LAST 
             DEFINITION IS CONSIDERED.
  *ELEMENT, TYPE=C3D8, ELSET=Elset588

 ***WARNING: ELEMENT LABEL 588 HAS BEEN USED MORE THAN ONCE. ONLY THE LAST 
             DEFINITION IS CONSIDERED.
  *ELEMENT, TYPE=C3D8, ELSET=Elset589

 ***WARNING: ELEMENT LABEL 589 HAS BEEN USED MORE THAN ONCE. ONLY THE LAST 
             DEFINITION IS CONSIDERED.
  *ELEMENT, TYPE=C3D8, ELSET=Elset590

 ***WARNING: ELEMENT LABEL 590 HAS BEEN USED MORE THAN ONCE. ONLY THE LAST 
             DEFINITION IS CONSIDERED.
  *ELEMENT, TYPE=C3D8, ELSET=Elset591

 ***WARNING: ELEMENT LABEL 591 HAS BEEN USED MORE THAN ONCE. ONLY THE LAST 
             DEFINITION IS CONSIDERED.
  *ELEMENT, TYPE=C3D8, ELSET=Elset592

 ***WARNING: ELEMENT LABEL 592 HAS BEEN USED MORE THAN ONCE. ONLY THE LAST 
             DEFINITION IS CONSIDERED.
  *ELEMENT, TYPE=C3D8, ELSET=Elset593

 ***WARNING: ELEMENT LABEL 593 HAS BEEN USED MORE THAN ONCE. ONLY THE LAST 
             DEFINITION IS CONSIDERED.
  *ELEMENT, TYPE=C3D8, ELSET=Elset594

 ***WARNING: ELEMENT LABEL 594 HAS BEEN USED MORE THAN ONCE. ONLY THE LAST 
             DEFINITION IS CONSIDERED.
  *ELEMENT, TYPE=C3D8, ELSET=Elset595

 ***WARNING: ELEMENT LABEL 595 HAS BEEN USED MORE THAN ONCE. ONLY THE LAST 
             DEFINITION IS CONSIDERED.
  *ELEMENT, TYPE=C3D8, ELSET=Elset596

 ***WARNING: ELEMENT LABEL 596 HAS BEEN USED MORE THAN ONCE. ONLY THE LAST 
             DEFINITION IS CONSIDERED.
  *ELEMENT, TYPE=C3D8, ELSET=Elset597

 ***WARNING: ELEMENT LABEL 597 HAS BEEN USED MORE THAN ONCE. ONLY THE LAST 
             DEFINITION IS CONSIDERED.
  *ELEMENT, TYPE=C3D8, ELSET=Elset598

 ***WARNING: ELEMENT LABEL 598 HAS BEEN USED MORE THAN ONCE. ONLY THE LAST 
             DEFINITION IS CONSIDERED.
  *ELEMENT, TYPE=C3D8, ELSET=Elset599

 ***WARNING: ELEMENT LABEL 599 HAS BEEN USED MORE THAN ONCE. ONLY THE LAST 
             DEFINITION IS CONSIDERED.
  *ELEMENT, TYPE=C3D8, ELSET=Elset600

 ***WARNING: ELEMENT LABEL 600 HAS BEEN USED MORE THAN ONCE. ONLY THE LAST 
             DEFINITION IS CONSIDERED.
  *ELEMENT, TYPE=C3D8, ELSET=Elset601

 ***WARNING: ELEMENT LABEL 601 HAS BEEN USED MORE THAN ONCE. ONLY THE LAST 
             DEFINITION IS CONSIDERED.
  *ELEMENT, TYPE=C3D8, ELSET=Elset602

 ***WARNING: ELEMENT LABEL 602 HAS BEEN USED MORE THAN ONCE. ONLY THE LAST 
             DEFINITION IS CONSIDERED.
  *ELEMENT, TYPE=C3D8, ELSET=Elset603

 ***WARNING: ELEMENT LABEL 603 HAS BEEN USED MORE THAN ONCE. ONLY THE LAST 
             DEFINITION IS CONSIDERED.
  *ELEMENT, TYPE=C3D8, ELSET=Elset614

 ***WARNING: ELEMENT LABEL 614 HAS BEEN USED MORE THAN ONCE. ONLY THE LAST 
             DEFINITION IS CONSIDERED.
  *ELEMENT, TYPE=C3D8, ELSET=Elset615

 ***WARNING: ELEMENT LABEL 615 HAS BEEN USED MORE THAN ONCE. ONLY THE LAST 
             DEFINITION IS CONSIDERED.
  *ELEMENT, TYPE=C3D8, ELSET=Elset616

 ***WARNING: ELEMENT LABEL 616 HAS BEEN USED MORE THAN ONCE. ONLY THE LAST 
             DEFINITION IS CONSIDERED.
  *ELEMENT, TYPE=C3D8, ELSET=Elset617

 ***WARNING: ELEMENT LABEL 617 HAS BEEN USED MORE THAN ONCE. ONLY THE LAST 
             DEFINITION IS CONSIDERED.
  *ELEMENT, TYPE=C3D8, ELSET=Elset618

 ***WARNING: ELEMENT LABEL 618 HAS BEEN USED MORE THAN ONCE. ONLY THE LAST 
             DEFINITION IS CONSIDERED.
  *ELEMENT, TYPE=C3D8, ELSET=Elset619

 ***WARNING: ELEMENT LABEL 619 HAS BEEN USED MORE THAN ONCE. ONLY THE LAST 
             DEFINITION IS CONSIDERED.
  *ELEMENT, TYPE=C3D8, ELSET=Elset620

 ***WARNING: ELEMENT LABEL 620 HAS BEEN USED MORE THAN ONCE. ONLY THE LAST 
             DEFINITION IS CONSIDERED.
  *ELEMENT, TYPE=C3D8, ELSET=Elset621

 ***WARNING: ELEMENT LABEL 621 HAS BEEN USED MORE THAN ONCE. ONLY THE LAST 
             DEFINITION IS CONSIDERED.
  *ELEMENT, TYPE=C3D8, ELSET=Elset622

 ***WARNING: ELEMENT LABEL 622 HAS BEEN USED MORE THAN ONCE. ONLY THE LAST 
             DEFINITION IS CONSIDERED.
  *ELEMENT, TYPE=C3D8, ELSET=Elset623

 ***WARNING: ELEMENT LABEL 623 HAS BEEN USED MORE THAN ONCE. ONLY THE LAST 
             DEFINITION IS CONSIDERED.
  *ELEMENT, TYPE=C3D8, ELSET=Elset624

 ***WARNING: ELEMENT LABEL 624 HAS BEEN USED MORE THAN ONCE. ONLY THE LAST 
             DEFINITION IS CONSIDERED.
  *ELEMENT, TYPE=C3D8, ELSET=Elset625

 ***WARNING: ELEMENT LABEL 625 HAS BEEN USED MORE THAN ONCE. ONLY THE LAST 
             DEFINITION IS CONSIDERED.
  *ELEMENT, TYPE=C3D8, ELSET=Elset626

 ***WARNING: ELEMENT LABEL 626 HAS BEEN USED MORE THAN ONCE. ONLY THE LAST 
             DEFINITION IS CONSIDERED.
  *ELEMENT, TYPE=C3D8, ELSET=Elset627

 ***WARNING: ELEMENT LABEL 627 HAS BEEN USED MORE THAN ONCE. ONLY THE LAST 
             DEFINITION IS CONSIDERED.
  *ELEMENT, TYPE=C3D8, ELSET=Elset628

 ***WARNING: ELEMENT LABEL 628 HAS BEEN USED MORE THAN ONCE. ONLY THE LAST 
             DEFINITION IS CONSIDERED.
  *ELEMENT, TYPE=C3D8, ELSET=Elset629

 ***WARNING: ELEMENT LABEL 629 HAS BEEN USED MORE THAN ONCE. ONLY THE LAST 
             DEFINITION IS CONSIDERED.
  *ELEMENT, TYPE=C3D8, ELSET=Elset630

 ***WARNING: ELEMENT LABEL 630 HAS BEEN USED MORE THAN ONCE. ONLY THE LAST 
             DEFINITION IS CONSIDERED.
  *ELEMENT, TYPE=C3D8, ELSET=Elset631

 ***WARNING: ELEMENT LABEL 631 HAS BEEN USED MORE THAN ONCE. ONLY THE LAST 
             DEFINITION IS CONSIDERED.
  *ELEMENT, TYPE=C3D8, ELSET=Elset632

 ***WARNING: ELEMENT LABEL 632 HAS BEEN USED MORE THAN ONCE. ONLY THE LAST 
             DEFINITION IS CONSIDERED.
  *ELEMENT, TYPE=C3D8, ELSET=Elset633

 ***WARNING: ELEMENT LABEL 633 HAS BEEN USED MORE THAN ONCE. ONLY THE LAST 
             DEFINITION IS CONSIDERED.
  *ELEMENT, TYPE=C3D8, ELSET=Elset634

 ***WARNING: ELEMENT LABEL 634 HAS BEEN USED MORE THAN ONCE. ONLY THE LAST 
             DEFINITION IS CONSIDERED.
  *ELEMENT, TYPE=C3D8, ELSET=Elset635

 ***WARNING: ELEMENT LABEL 635 HAS BEEN USED MORE THAN ONCE. ONLY THE LAST 
             DEFINITION IS CONSIDERED.
  *ELEMENT, TYPE=C3D8, ELSET=Elset646

 ***WARNING: ELEMENT LABEL 646 HAS BEEN USED MORE THAN ONCE. ONLY THE LAST 
             DEFINITION IS CONSIDERED.
  *ELEMENT, TYPE=C3D8, ELSET=Elset647

 ***WARNING: ELEMENT LABEL 647 HAS BEEN USED MORE THAN ONCE. ONLY THE LAST 
             DEFINITION IS CONSIDERED.
  *ELEMENT, TYPE=C3D8, ELSET=Elset648

 ***WARNING: ELEMENT LABEL 648 HAS BEEN USED MORE THAN ONCE. ONLY THE LAST 
             DEFINITION IS CONSIDERED.
  *ELEMENT, TYPE=C3D8, ELSET=Elset649

 ***WARNING: ELEMENT LABEL 649 HAS BEEN USED MORE THAN ONCE. ONLY THE LAST 
             DEFINITION IS CONSIDERED.
  *ELEMENT, TYPE=C3D8, ELSET=Elset650

 ***WARNING: ELEMENT LABEL 650 HAS BEEN USED MORE THAN ONCE. ONLY THE LAST 
             DEFINITION IS CONSIDERED.
  *ELEMENT, TYPE=C3D8, ELSET=Elset651

 ***WARNING: ELEMENT LABEL 651 HAS BEEN USED MORE THAN ONCE. ONLY THE LAST 
             DEFINITION IS CONSIDERED.
  *ELEMENT, TYPE=C3D8, ELSET=Elset652

 ***WARNING: ELEMENT LABEL 652 HAS BEEN USED MORE THAN ONCE. ONLY THE LAST 
             DEFINITION IS CONSIDERED.
  *ELEMENT, TYPE=C3D8, ELSET=Elset653

 ***WARNING: ELEMENT LABEL 653 HAS BEEN USED MORE THAN ONCE. ONLY THE LAST 
             DEFINITION IS CONSIDERED.
  *ELEMENT, TYPE=C3D8, ELSET=Elset654

 ***WARNING: ELEMENT LABEL 654 HAS BEEN USED MORE THAN ONCE. ONLY THE LAST 
             DEFINITION IS CONSIDERED.
  *ELEMENT, TYPE=C3D8, ELSET=Elset655

 ***WARNING: ELEMENT LABEL 655 HAS BEEN USED MORE THAN ONCE. ONLY THE LAST 
             DEFINITION IS CONSIDERED.
  *ELEMENT, TYPE=C3D8, ELSET=Elset656

 ***WARNING: ELEMENT LABEL 656 HAS BEEN USED MORE THAN ONCE. ONLY THE LAST 
             DEFINITION IS CONSIDERED.
  *ELEMENT, TYPE=C3D8, ELSET=Elset657

 ***WARNING: ELEMENT LABEL 657 HAS BEEN USED MORE THAN ONCE. ONLY THE LAST 
             DEFINITION IS CONSIDERED.
  *ELEMENT, TYPE=C3D8, ELSET=Elset658

 ***WARNING: ELEMENT LABEL 658 HAS BEEN USED MORE THAN ONCE. ONLY THE LAST 
             DEFINITION IS CONSIDERED.
  *ELEMENT, TYPE=C3D8, ELSET=Elset659

 ***WARNING: ELEMENT LABEL 659 HAS BEEN USED MORE THAN ONCE. ONLY THE LAST 
             DEFINITION IS CONSIDERED.
  *ELEMENT, TYPE=C3D8, ELSET=Elset660

 ***WARNING: ELEMENT LABEL 660 HAS BEEN USED MORE THAN ONCE. ONLY THE LAST 
             DEFINITION IS CONSIDERED.
  *ELEMENT, TYPE=C3D8, ELSET=Elset661

 ***WARNING: ELEMENT LABEL 661 HAS BEEN USED MORE THAN ONCE. ONLY THE LAST 
             DEFINITION IS CONSIDERED.
  *ELEMENT, TYPE=C3D8, ELSET=Elset662

 ***WARNING: ELEMENT LABEL 662 HAS BEEN USED MORE THAN ONCE. ONLY THE LAST 
             DEFINITION IS CONSIDERED.
  *ELEMENT, TYPE=C3D8, ELSET=Elset663

 ***WARNING: ELEMENT LABEL 663 HAS BEEN USED MORE THAN ONCE. ONLY THE LAST 
             DEFINITION IS CONSIDERED.
  *ELEMENT, TYPE=C3D8, ELSET=Elset664

 ***WARNING: ELEMENT LABEL 664 HAS BEEN USED MORE THAN ONCE. ONLY THE LAST 
             DEFINITION IS CONSIDERED.
  *ELEMENT, TYPE=C3D8, ELSET=Elset665

 ***WARNING: ELEMENT LABEL 665 HAS BEEN USED MORE THAN ONCE. ONLY THE LAST 
             DEFINITION IS CONSIDERED.
  *ELEMENT, TYPE=C3D8, ELSET=Elset666

 ***WARNING: ELEMENT LABEL 666 HAS BEEN USED MORE THAN ONCE. ONLY THE LAST 
             DEFINITION IS CONSIDERED.
  *ELEMENT, TYPE=C3D8, ELSET=Elset678

 ***WARNING: ELEMENT LABEL 678 HAS BEEN USED MORE THAN ONCE. ONLY THE LAST 
             DEFINITION IS CONSIDERED.
  *ELEMENT, TYPE=C3D8, ELSET=Elset679

 ***WARNING: ELEMENT LABEL 679 HAS BEEN USED MORE THAN ONCE. ONLY THE LAST 
             DEFINITION IS CONSIDERED.
  *ELEMENT, TYPE=C3D8, ELSET=Elset680

 ***WARNING: ELEMENT LABEL 680 HAS BEEN USED MORE THAN ONCE. ONLY THE LAST 
             DEFINITION IS CONSIDERED.
  *ELEMENT, TYPE=C3D8, ELSET=Elset681

 ***WARNING: ELEMENT LABEL 681 HAS BEEN USED MORE THAN ONCE. ONLY THE LAST 
             DEFINITION IS CONSIDERED.
  *ELEMENT, TYPE=C3D8, ELSET=Elset682

 ***WARNING: ELEMENT LABEL 682 HAS BEEN USED MORE THAN ONCE. ONLY THE LAST 
             DEFINITION IS CONSIDERED.
  *ELEMENT, TYPE=C3D8, ELSET=Elset683

 ***WARNING: ELEMENT LABEL 683 HAS BEEN USED MORE THAN ONCE. ONLY THE LAST 
             DEFINITION IS CONSIDERED.
  *ELEMENT, TYPE=C3D8, ELSET=Elset684

 ***WARNING: ELEMENT LABEL 684 HAS BEEN USED MORE THAN ONCE. ONLY THE LAST 
             DEFINITION IS CONSIDERED.
  *ELEMENT, TYPE=C3D8, ELSET=Elset685

 ***WARNING: ELEMENT LABEL 685 HAS BEEN USED MORE THAN ONCE. ONLY THE LAST 
             DEFINITION IS CONSIDERED.
  *ELEMENT, TYPE=C3D8, ELSET=Elset686

 ***WARNING: ELEMENT LABEL 686 HAS BEEN USED MORE THAN ONCE. ONLY THE LAST 
             DEFINITION IS CONSIDERED.
  *ELEMENT, TYPE=C3D8, ELSET=Elset687

 ***WARNING: ELEMENT LABEL 687 HAS BEEN USED MORE THAN ONCE. ONLY THE LAST 
             DEFINITION IS CONSIDERED.
  *ELEMENT, TYPE=C3D8, ELSET=Elset688

 ***WARNING: ELEMENT LABEL 688 HAS BEEN USED MORE THAN ONCE. ONLY THE LAST 
             DEFINITION IS CONSIDERED.
  *ELEMENT, TYPE=C3D8, ELSET=Elset689

 ***WARNING: ELEMENT LABEL 689 HAS BEEN USED MORE THAN ONCE. ONLY THE LAST 
             DEFINITION IS CONSIDERED.
  *ELEMENT, TYPE=C3D8, ELSET=Elset690

 ***WARNING: ELEMENT LABEL 690 HAS BEEN USED MORE THAN ONCE. ONLY THE LAST 
             DEFINITION IS CONSIDERED.
  *ELEMENT, TYPE=C3D8, ELSET=Elset691

 ***WARNING: ELEMENT LABEL 691 HAS BEEN USED MORE THAN ONCE. ONLY THE LAST 
             DEFINITION IS CONSIDERED.
  *ELEMENT, TYPE=C3D8, ELSET=Elset692

 ***WARNING: ELEMENT LABEL 692 HAS BEEN USED MORE THAN ONCE. ONLY THE LAST 
             DEFINITION IS CONSIDERED.
  *ELEMENT, TYPE=C3D8, ELSET=Elset693

 ***WARNING: ELEMENT LABEL 693 HAS BEEN USED MORE THAN ONCE. ONLY THE LAST 
             DEFINITION IS CONSIDERED.
  *ELEMENT, TYPE=C3D8, ELSET=Elset694

 ***WARNING: ELEMENT LABEL 694 HAS BEEN USED MORE THAN ONCE. ONLY THE LAST 
             DEFINITION IS CONSIDERED.
  *ELEMENT, TYPE=C3D8, ELSET=Elset695

 ***WARNING: ELEMENT LABEL 695 HAS BEEN USED MORE THAN ONCE. ONLY THE LAST 
             DEFINITION IS CONSIDERED.
  *ELEMENT, TYPE=C3D8, ELSET=Elset696

 ***WARNING: ELEMENT LABEL 696 HAS BEEN USED MORE THAN ONCE. ONLY THE LAST 
             DEFINITION IS CONSIDERED.
  *ELEMENT, TYPE=C3D8, ELSET=Elset697

 ***WARNING: ELEMENT LABEL 697 HAS BEEN USED MORE THAN ONCE. ONLY THE LAST 
             DEFINITION IS CONSIDERED.
  *ELEMENT, TYPE=C3D8, ELSET=Elset698

 ***WARNING: ELEMENT LABEL 698 HAS BEEN USED MORE THAN ONCE. ONLY THE LAST 
             DEFINITION IS CONSIDERED.
  *ELEMENT, TYPE=C3D8, ELSET=Elset711

 ***WARNING: ELEMENT LABEL 711 HAS BEEN USED MORE THAN ONCE. ONLY THE LAST 
             DEFINITION IS CONSIDERED.
  *ELEMENT, TYPE=C3D8, ELSET=Elset712

 ***WARNING: ELEMENT LABEL 712 HAS BEEN USED MORE THAN ONCE. ONLY THE LAST 
             DEFINITION IS CONSIDERED.
  *ELEMENT, TYPE=C3D8, ELSET=Elset713

 ***WARNING: ELEMENT LABEL 713 HAS BEEN USED MORE THAN ONCE. ONLY THE LAST 
             DEFINITION IS CONSIDERED.
  *ELEMENT, TYPE=C3D8, ELSET=Elset714

 ***WARNING: ELEMENT LABEL 714 HAS BEEN USED MORE THAN ONCE. ONLY THE LAST 
             DEFINITION IS CONSIDERED.
  *ELEMENT, TYPE=C3D8, ELSET=Elset715

 ***WARNING: ELEMENT LABEL 715 HAS BEEN USED MORE THAN ONCE. ONLY THE LAST 
             DEFINITION IS CONSIDERED.
  *ELEMENT, TYPE=C3D8, ELSET=Elset716

 ***WARNING: ELEMENT LABEL 716 HAS BEEN USED MORE THAN ONCE. ONLY THE LAST 
             DEFINITION IS CONSIDERED.
  *ELEMENT, TYPE=C3D8, ELSET=Elset717

 ***WARNING: ELEMENT LABEL 717 HAS BEEN USED MORE THAN ONCE. ONLY THE LAST 
             DEFINITION IS CONSIDERED.
  *ELEMENT, TYPE=C3D8, ELSET=Elset718

 ***WARNING: ELEMENT LABEL 718 HAS BEEN USED MORE THAN ONCE. ONLY THE LAST 
             DEFINITION IS CONSIDERED.
  *ELEMENT, TYPE=C3D8, ELSET=Elset719

 ***WARNING: ELEMENT LABEL 719 HAS BEEN USED MORE THAN ONCE. ONLY THE LAST 
             DEFINITION IS CONSIDERED.
  *ELEMENT, TYPE=C3D8, ELSET=Elset720

 ***WARNING: ELEMENT LABEL 720 HAS BEEN USED MORE THAN ONCE. ONLY THE LAST 
             DEFINITION IS CONSIDERED.
  *ELEMENT, TYPE=C3D8, ELSET=Elset721

 ***WARNING: ELEMENT LABEL 721 HAS BEEN USED MORE THAN ONCE. ONLY THE LAST 
             DEFINITION IS CONSIDERED.
  *ELEMENT, TYPE=C3D8, ELSET=Elset722

 ***WARNING: ELEMENT LABEL 722 HAS BEEN USED MORE THAN ONCE. ONLY THE LAST 
             DEFINITION IS CONSIDERED.
  *ELEMENT, TYPE=C3D8, ELSET=Elset723

 ***WARNING: ELEMENT LABEL 723 HAS BEEN USED MORE THAN ONCE. ONLY THE LAST 
             DEFINITION IS CONSIDERED.
  *ELEMENT, TYPE=C3D8, ELSET=Elset724

 ***WARNING: ELEMENT LABEL 724 HAS BEEN USED MORE THAN ONCE. ONLY THE LAST 
             DEFINITION IS CONSIDERED.
  *ELEMENT, TYPE=C3D8, ELSET=Elset725

 ***WARNING: ELEMENT LABEL 725 HAS BEEN USED MORE THAN ONCE. ONLY THE LAST 
             DEFINITION IS CONSIDERED.
  *ELEMENT, TYPE=C3D8, ELSET=Elset726

 ***WARNING: ELEMENT LABEL 726 HAS BEEN USED MORE THAN ONCE. ONLY THE LAST 
             DEFINITION IS CONSIDERED.
  *ELEMENT, TYPE=C3D8, ELSET=Elset727

 ***WARNING: ELEMENT LABEL 727 HAS BEEN USED MORE THAN ONCE. ONLY THE LAST 
             DEFINITION IS CONSIDERED.
  *ELEMENT, TYPE=C3D8, ELSET=Elset728

 ***WARNING: ELEMENT LABEL 728 HAS BEEN USED MORE THAN ONCE. ONLY THE LAST 
             DEFINITION IS CONSIDERED.
  *ELEMENT, TYPE=C3D8, ELSET=Elset729

 ***WARNING: ELEMENT LABEL 729 HAS BEEN USED MORE THAN ONCE. ONLY THE LAST 
             DEFINITION IS CONSIDERED.
  *ELEMENT, TYPE=C3D8, ELSET=Elset730

 ***WARNING: ELEMENT LABEL 730 HAS BEEN USED MORE THAN ONCE. ONLY THE LAST 
             DEFINITION IS CONSIDERED.
  *ELEMENT, TYPE=C3D8, ELSET=Elset743

 ***WARNING: ELEMENT LABEL 743 HAS BEEN USED MORE THAN ONCE. ONLY THE LAST 
             DEFINITION IS CONSIDERED.
  *ELEMENT, TYPE=C3D8, ELSET=Elset744

 ***WARNING: ELEMENT LABEL 744 HAS BEEN USED MORE THAN ONCE. ONLY THE LAST 
             DEFINITION IS CONSIDERED.
  *ELEMENT, TYPE=C3D8, ELSET=Elset745

 ***WARNING: ELEMENT LABEL 745 HAS BEEN USED MORE THAN ONCE. ONLY THE LAST 
             DEFINITION IS CONSIDERED.
  *ELEMENT, TYPE=C3D8, ELSET=Elset746

 ***WARNING: ELEMENT LABEL 746 HAS BEEN USED MORE THAN ONCE. ONLY THE LAST 
             DEFINITION IS CONSIDERED.
  *ELEMENT, TYPE=C3D8, ELSET=Elset747

 ***WARNING: ELEMENT LABEL 747 HAS BEEN USED MORE THAN ONCE. ONLY THE LAST 
             DEFINITION IS CONSIDERED.
  *ELEMENT, TYPE=C3D8, ELSET=Elset748

 ***WARNING: ELEMENT LABEL 748 HAS BEEN USED MORE THAN ONCE. ONLY THE LAST 
             DEFINITION IS CONSIDERED.
  *ELEMENT, TYPE=C3D8, ELSET=Elset749

 ***WARNING: ELEMENT LABEL 749 HAS BEEN USED MORE THAN ONCE. ONLY THE LAST 
             DEFINITION IS CONSIDERED.
  *ELEMENT, TYPE=C3D8, ELSET=Elset750

 ***WARNING: ELEMENT LABEL 750 HAS BEEN USED MORE THAN ONCE. ONLY THE LAST 
             DEFINITION IS CONSIDERED.
  *ELEMENT, TYPE=C3D8, ELSET=Elset751

 ***WARNING: ELEMENT LABEL 751 HAS BEEN USED MORE THAN ONCE. ONLY THE LAST 
             DEFINITION IS CONSIDERED.
  *ELEMENT, TYPE=C3D8, ELSET=Elset752

 ***WARNING: ELEMENT LABEL 752 HAS BEEN USED MORE THAN ONCE. ONLY THE LAST 
             DEFINITION IS CONSIDERED.
  *ELEMENT, TYPE=C3D8, ELSET=Elset753

 ***WARNING: ELEMENT LABEL 753 HAS BEEN USED MORE THAN ONCE. ONLY THE LAST 
             DEFINITION IS CONSIDERED.
  *ELEMENT, TYPE=C3D8, ELSET=Elset754

 ***WARNING: ELEMENT LABEL 754 HAS BEEN USED MORE THAN ONCE. ONLY THE LAST 
             DEFINITION IS CONSIDERED.
  *ELEMENT, TYPE=C3D8, ELSET=Elset755

 ***WARNING: ELEMENT LABEL 755 HAS BEEN USED MORE THAN ONCE. ONLY THE LAST 
             DEFINITION IS CONSIDERED.
  *ELEMENT, TYPE=C3D8, ELSET=Elset756

 ***WARNING: ELEMENT LABEL 756 HAS BEEN USED MORE THAN ONCE. ONLY THE LAST 
             DEFINITION IS CONSIDERED.
  *ELEMENT, TYPE=C3D8, ELSET=Elset757

 ***WARNING: ELEMENT LABEL 757 HAS BEEN USED MORE THAN ONCE. ONLY THE LAST 
             DEFINITION IS CONSIDERED.
  *ELEMENT, TYPE=C3D8, ELSET=Elset758

 ***WARNING: ELEMENT LABEL 758 HAS BEEN USED MORE THAN ONCE. ONLY THE LAST 
             DEFINITION IS CONSIDERED.
  *ELEMENT, TYPE=C3D8, ELSET=Elset759

 ***WARNING: ELEMENT LABEL 759 HAS BEEN USED MORE THAN ONCE. ONLY THE LAST 
             DEFINITION IS CONSIDERED.
  *ELEMENT, TYPE=C3D8, ELSET=Elset760

 ***WARNING: ELEMENT LABEL 760 HAS BEEN USED MORE THAN ONCE. ONLY THE LAST 
             DEFINITION IS CONSIDERED.
  *ELEMENT, TYPE=C3D8, ELSET=Elset761

 ***WARNING: ELEMENT LABEL 761 HAS BEEN USED MORE THAN ONCE. ONLY THE LAST 
             DEFINITION IS CONSIDERED.
  *ELEMENT, TYPE=C3D8, ELSET=Elset775

 ***WARNING: ELEMENT LABEL 775 HAS BEEN USED MORE THAN ONCE. ONLY THE LAST 
             DEFINITION IS CONSIDERED.
  *ELEMENT, TYPE=C3D8, ELSET=Elset776

 ***WARNING: ELEMENT LABEL 776 HAS BEEN USED MORE THAN ONCE. ONLY THE LAST 
             DEFINITION IS CONSIDERED.
  *ELEMENT, TYPE=C3D8, ELSET=Elset777

 ***WARNING: ELEMENT LABEL 777 HAS BEEN USED MORE THAN ONCE. ONLY THE LAST 
             DEFINITION IS CONSIDERED.
  *ELEMENT, TYPE=C3D8, ELSET=Elset778

 ***WARNING: ELEMENT LABEL 778 HAS BEEN USED MORE THAN ONCE. ONLY THE LAST 
             DEFINITION IS CONSIDERED.
  *ELEMENT, TYPE=C3D8, ELSET=Elset779

 ***WARNING: ELEMENT LABEL 779 HAS BEEN USED MORE THAN ONCE. ONLY THE LAST 
             DEFINITION IS CONSIDERED.
  *ELEMENT, TYPE=C3D8, ELSET=Elset780

 ***WARNING: ELEMENT LABEL 780 HAS BEEN USED MORE THAN ONCE. ONLY THE LAST 
             DEFINITION IS CONSIDERED.
  *ELEMENT, TYPE=C3D8, ELSET=Elset781

 ***WARNING: ELEMENT LABEL 781 HAS BEEN USED MORE THAN ONCE. ONLY THE LAST 
             DEFINITION IS CONSIDERED.
  *ELEMENT, TYPE=C3D8, ELSET=Elset782

 ***WARNING: ELEMENT LABEL 782 HAS BEEN USED MORE THAN ONCE. ONLY THE LAST 
             DEFINITION IS CONSIDERED.
  *ELEMENT, TYPE=C3D8, ELSET=Elset783

 ***WARNING: ELEMENT LABEL 783 HAS BEEN USED MORE THAN ONCE. ONLY THE LAST 
             DEFINITION IS CONSIDERED.
  *ELEMENT, TYPE=C3D8, ELSET=Elset784

 ***WARNING: ELEMENT LABEL 784 HAS BEEN USED MORE THAN ONCE. ONLY THE LAST 
             DEFINITION IS CONSIDERED.
  *ELEMENT, TYPE=C3D8, ELSET=Elset785

 ***WARNING: ELEMENT LABEL 785 HAS BEEN USED MORE THAN ONCE. ONLY THE LAST 
             DEFINITION IS CONSIDERED.
  *ELEMENT, TYPE=C3D8, ELSET=Elset786

 ***WARNING: ELEMENT LABEL 786 HAS BEEN USED MORE THAN ONCE. ONLY THE LAST 
             DEFINITION IS CONSIDERED.
  *ELEMENT, TYPE=C3D8, ELSET=Elset787

 ***WARNING: ELEMENT LABEL 787 HAS BEEN USED MORE THAN ONCE. ONLY THE LAST 
             DEFINITION IS CONSIDERED.
  *ELEMENT, TYPE=C3D8, ELSET=Elset788

 ***WARNING: ELEMENT LABEL 788 HAS BEEN USED MORE THAN ONCE. ONLY THE LAST 
             DEFINITION IS CONSIDERED.
  *ELEMENT, TYPE=C3D8, ELSET=Elset789

 ***WARNING: ELEMENT LABEL 789 HAS BEEN USED MORE THAN ONCE. ONLY THE LAST 
             DEFINITION IS CONSIDERED.
  *ELEMENT, TYPE=C3D8, ELSET=Elset790

 ***WARNING: ELEMENT LABEL 790 HAS BEEN USED MORE THAN ONCE. ONLY THE LAST 
             DEFINITION IS CONSIDERED.
  *ELEMENT, TYPE=C3D8, ELSET=Elset791

 ***WARNING: ELEMENT LABEL 791 HAS BEEN USED MORE THAN ONCE. ONLY THE LAST 
             DEFINITION IS CONSIDERED.
  *ELEMENT, TYPE=C3D8, ELSET=Elset792

 ***WARNING: ELEMENT LABEL 792 HAS BEEN USED MORE THAN ONCE. ONLY THE LAST 
             DEFINITION IS CONSIDERED.
  *ELEMENT, TYPE=C3D8, ELSET=Elset793

 ***WARNING: ELEMENT LABEL 793 HAS BEEN USED MORE THAN ONCE. ONLY THE LAST 
             DEFINITION IS CONSIDERED.
  *ELEMENT, TYPE=C3D8, ELSET=Elset807

 ***WARNING: ELEMENT LABEL 807 HAS BEEN USED MORE THAN ONCE. ONLY THE LAST 
             DEFINITION IS CONSIDERED.
  *ELEMENT, TYPE=C3D8, ELSET=Elset808

 ***WARNING: ELEMENT LABEL 808 HAS BEEN USED MORE THAN ONCE. ONLY THE LAST 
             DEFINITION IS CONSIDERED.
  *ELEMENT, TYPE=C3D8, ELSET=Elset809

 ***WARNING: ELEMENT LABEL 809 HAS BEEN USED MORE THAN ONCE. ONLY THE LAST 
             DEFINITION IS CONSIDERED.
  *ELEMENT, TYPE=C3D8, ELSET=Elset810

 ***WARNING: ELEMENT LABEL 810 HAS BEEN USED MORE THAN ONCE. ONLY THE LAST 
             DEFINITION IS CONSIDERED.
  *ELEMENT, TYPE=C3D8, ELSET=Elset811

 ***WARNING: ELEMENT LABEL 811 HAS BEEN USED MORE THAN ONCE. ONLY THE LAST 
             DEFINITION IS CONSIDERED.
  *ELEMENT, TYPE=C3D8, ELSET=Elset812

 ***WARNING: ELEMENT LABEL 812 HAS BEEN USED MORE THAN ONCE. ONLY THE LAST 
             DEFINITION IS CONSIDERED.
  *ELEMENT, TYPE=C3D8, ELSET=Elset813

 ***WARNING: ELEMENT LABEL 813 HAS BEEN USED MORE THAN ONCE. ONLY THE LAST 
             DEFINITION IS CONSIDERED.
  *ELEMENT, TYPE=C3D8, ELSET=Elset814

 ***WARNING: ELEMENT LABEL 814 HAS BEEN USED MORE THAN ONCE. ONLY THE LAST 
             DEFINITION IS CONSIDERED.
  *ELEMENT, TYPE=C3D8, ELSET=Elset815

 ***WARNING: ELEMENT LABEL 815 HAS BEEN USED MORE THAN ONCE. ONLY THE LAST 
             DEFINITION IS CONSIDERED.
  *ELEMENT, TYPE=C3D8, ELSET=Elset816

 ***WARNING: ELEMENT LABEL 816 HAS BEEN USED MORE THAN ONCE. ONLY THE LAST 
             DEFINITION IS CONSIDERED.
  *ELEMENT, TYPE=C3D8, ELSET=Elset817

 ***WARNING: ELEMENT LABEL 817 HAS BEEN USED MORE THAN ONCE. ONLY THE LAST 
             DEFINITION IS CONSIDERED.
  *ELEMENT, TYPE=C3D8, ELSET=Elset818

 ***WARNING: ELEMENT LABEL 818 HAS BEEN USED MORE THAN ONCE. ONLY THE LAST 
             DEFINITION IS CONSIDERED.
  *ELEMENT, TYPE=C3D8, ELSET=Elset819

 ***WARNING: ELEMENT LABEL 819 HAS BEEN USED MORE THAN ONCE. ONLY THE LAST 
             DEFINITION IS CONSIDERED.
  *ELEMENT, TYPE=C3D8, ELSET=Elset820

 ***WARNING: ELEMENT LABEL 820 HAS BEEN USED MORE THAN ONCE. ONLY THE LAST 
             DEFINITION IS CONSIDERED.
  *ELEMENT, TYPE=C3D8, ELSET=Elset821

 ***WARNING: ELEMENT LABEL 821 HAS BEEN USED MORE THAN ONCE. ONLY THE LAST 
             DEFINITION IS CONSIDERED.
  *ELEMENT, TYPE=C3D8, ELSET=Elset822

 ***WARNING: ELEMENT LABEL 822 HAS BEEN USED MORE THAN ONCE. ONLY THE LAST 
             DEFINITION IS CONSIDERED.
  *ELEMENT, TYPE=C3D8, ELSET=Elset823

 ***WARNING: ELEMENT LABEL 823 HAS BEEN USED MORE THAN ONCE. ONLY THE LAST 
             DEFINITION IS CONSIDERED.
  *ELEMENT, TYPE=C3D8, ELSET=Elset824

 ***WARNING: ELEMENT LABEL 824 HAS BEEN USED MORE THAN ONCE. ONLY THE LAST 
             DEFINITION IS CONSIDERED.
  *ELEMENT, TYPE=C3D8, ELSET=Elset839

 ***WARNING: ELEMENT LABEL 839 HAS BEEN USED MORE THAN ONCE. ONLY THE LAST 
             DEFINITION IS CONSIDERED.
  *ELEMENT, TYPE=C3D8, ELSET=Elset840

 ***WARNING: ELEMENT LABEL 840 HAS BEEN USED MORE THAN ONCE. ONLY THE LAST 
             DEFINITION IS CONSIDERED.
  *ELEMENT, TYPE=C3D8, ELSET=Elset841

 ***WARNING: ELEMENT LABEL 841 HAS BEEN USED MORE THAN ONCE. ONLY THE LAST 
             DEFINITION IS CONSIDERED.
  *ELEMENT, TYPE=C3D8, ELSET=Elset842

 ***WARNING: ELEMENT LABEL 842 HAS BEEN USED MORE THAN ONCE. ONLY THE LAST 
             DEFINITION IS CONSIDERED.
  *ELEMENT, TYPE=C3D8, ELSET=Elset843

 ***WARNING: ELEMENT LABEL 843 HAS BEEN USED MORE THAN ONCE. ONLY THE LAST 
             DEFINITION IS CONSIDERED.
  *ELEMENT, TYPE=C3D8, ELSET=Elset844

 ***WARNING: ELEMENT LABEL 844 HAS BEEN USED MORE THAN ONCE. ONLY THE LAST 
             DEFINITION IS CONSIDERED.
  *ELEMENT, TYPE=C3D8, ELSET=Elset845

 ***WARNING: ELEMENT LABEL 845 HAS BEEN USED MORE THAN ONCE. ONLY THE LAST 
             DEFINITION IS CONSIDERED.
  *ELEMENT, TYPE=C3D8, ELSET=Elset846

 ***WARNING: ELEMENT LABEL 846 HAS BEEN USED MORE THAN ONCE. ONLY THE LAST 
             DEFINITION IS CONSIDERED.
  *ELEMENT, TYPE=C3D8, ELSET=Elset847

 ***WARNING: ELEMENT LABEL 847 HAS BEEN USED MORE THAN ONCE. ONLY THE LAST 
             DEFINITION IS CONSIDERED.
  *ELEMENT, TYPE=C3D8, ELSET=Elset848

 ***WARNING: ELEMENT LABEL 848 HAS BEEN USED MORE THAN ONCE. ONLY THE LAST 
             DEFINITION IS CONSIDERED.
  *ELEMENT, TYPE=C3D8, ELSET=Elset849

 ***WARNING: ELEMENT LABEL 849 HAS BEEN USED MORE THAN ONCE. ONLY THE LAST 
             DEFINITION IS CONSIDERED.
  *ELEMENT, TYPE=C3D8, ELSET=Elset850

 ***WARNING: ELEMENT LABEL 850 HAS BEEN USED MORE THAN ONCE. ONLY THE LAST 
             DEFINITION IS CONSIDERED.
  *ELEMENT, TYPE=C3D8, ELSET=Elset851

 ***WARNING: ELEMENT LABEL 851 HAS BEEN USED MORE THAN ONCE. ONLY THE LAST 
             DEFINITION IS CONSIDERED.
  *ELEMENT, TYPE=C3D8, ELSET=Elset852

 ***WARNING: ELEMENT LABEL 852 HAS BEEN USED MORE THAN ONCE. ONLY THE LAST 
             DEFINITION IS CONSIDERED.
  *ELEMENT, TYPE=C3D8, ELSET=Elset853

 ***WARNING: ELEMENT LABEL 853 HAS BEEN USED MORE THAN ONCE. ONLY THE LAST 
             DEFINITION IS CONSIDERED.
  *ELEMENT, TYPE=C3D8, ELSET=Elset854

 ***WARNING: ELEMENT LABEL 854 HAS BEEN USED MORE THAN ONCE. ONLY THE LAST 
             DEFINITION IS CONSIDERED.
  *ELEMENT, TYPE=C3D8, ELSET=Elset855

 ***WARNING: ELEMENT LABEL 855 HAS BEEN USED MORE THAN ONCE. ONLY THE LAST 
             DEFINITION IS CONSIDERED.
  *ELEMENT, TYPE=C3D8, ELSET=Elset872

 ***WARNING: ELEMENT LABEL 872 HAS BEEN USED MORE THAN ONCE. ONLY THE LAST 
             DEFINITION IS CONSIDERED.
  *ELEMENT, TYPE=C3D8, ELSET=Elset873

 ***WARNING: ELEMENT LABEL 873 HAS BEEN USED MORE THAN ONCE. ONLY THE LAST 
             DEFINITION IS CONSIDERED.
  *ELEMENT, TYPE=C3D8, ELSET=Elset874

 ***WARNING: ELEMENT LABEL 874 HAS BEEN USED MORE THAN ONCE. ONLY THE LAST 
             DEFINITION IS CONSIDERED.
  *ELEMENT, TYPE=C3D8, ELSET=Elset875

 ***WARNING: ELEMENT LABEL 875 HAS BEEN USED MORE THAN ONCE. ONLY THE LAST 
             DEFINITION IS CONSIDERED.
  *ELEMENT, TYPE=C3D8, ELSET=Elset876

 ***WARNING: ELEMENT LABEL 876 HAS BEEN USED MORE THAN ONCE. ONLY THE LAST 
             DEFINITION IS CONSIDERED.
  *ELEMENT, TYPE=C3D8, ELSET=Elset877

 ***WARNING: ELEMENT LABEL 877 HAS BEEN USED MORE THAN ONCE. ONLY THE LAST 
             DEFINITION IS CONSIDERED.
  *ELEMENT, TYPE=C3D8, ELSET=Elset878

 ***WARNING: ELEMENT LABEL 878 HAS BEEN USED MORE THAN ONCE. ONLY THE LAST 
             DEFINITION IS CONSIDERED.
  *ELEMENT, TYPE=C3D8, ELSET=Elset879

 ***WARNING: ELEMENT LABEL 879 HAS BEEN USED MORE THAN ONCE. ONLY THE LAST 
             DEFINITION IS CONSIDERED.
  *ELEMENT, TYPE=C3D8, ELSET=Elset880

 ***WARNING: ELEMENT LABEL 880 HAS BEEN USED MORE THAN ONCE. ONLY THE LAST 
             DEFINITION IS CONSIDERED.
  *ELEMENT, TYPE=C3D8, ELSET=Elset881

 ***WARNING: ELEMENT LABEL 881 HAS BEEN USED MORE THAN ONCE. ONLY THE LAST 
             DEFINITION IS CONSIDERED.
  *ELEMENT, TYPE=C3D8, ELSET=Elset882

 ***WARNING: ELEMENT LABEL 882 HAS BEEN USED MORE THAN ONCE. ONLY THE LAST 
             DEFINITION IS CONSIDERED.
  *ELEMENT, TYPE=C3D8, ELSET=Elset883

 ***WARNING: ELEMENT LABEL 883 HAS BEEN USED MORE THAN ONCE. ONLY THE LAST 
             DEFINITION IS CONSIDERED.
  *ELEMENT, TYPE=C3D8, ELSET=Elset884

 ***WARNING: ELEMENT LABEL 884 HAS BEEN USED MORE THAN ONCE. ONLY THE LAST 
             DEFINITION IS CONSIDERED.
  *ELEMENT, TYPE=C3D8, ELSET=Elset885

 ***WARNING: ELEMENT LABEL 885 HAS BEEN USED MORE THAN ONCE. ONLY THE LAST 
             DEFINITION IS CONSIDERED.
  *ELEMENT, TYPE=C3D8, ELSET=Elset886

 ***WARNING: ELEMENT LABEL 886 HAS BEEN USED MORE THAN ONCE. ONLY THE LAST 
             DEFINITION IS CONSIDERED.
  *ELEMENT, TYPE=C3D8, ELSET=Elset904

 ***WARNING: ELEMENT LABEL 904 HAS BEEN USED MORE THAN ONCE. ONLY THE LAST 
             DEFINITION IS CONSIDERED.
  *ELEMENT, TYPE=C3D8, ELSET=Elset905

 ***WARNING: ELEMENT LABEL 905 HAS BEEN USED MORE THAN ONCE. ONLY THE LAST 
             DEFINITION IS CONSIDERED.
  *ELEMENT, TYPE=C3D8, ELSET=Elset906

 ***WARNING: ELEMENT LABEL 906 HAS BEEN USED MORE THAN ONCE. ONLY THE LAST 
             DEFINITION IS CONSIDERED.
  *ELEMENT, TYPE=C3D8, ELSET=Elset907

 ***WARNING: ELEMENT LABEL 907 HAS BEEN USED MORE THAN ONCE. ONLY THE LAST 
             DEFINITION IS CONSIDERED.
  *ELEMENT, TYPE=C3D8, ELSET=Elset908

 ***WARNING: ELEMENT LABEL 908 HAS BEEN USED MORE THAN ONCE. ONLY THE LAST 
             DEFINITION IS CONSIDERED.
  *ELEMENT, TYPE=C3D8, ELSET=Elset909

 ***WARNING: ELEMENT LABEL 909 HAS BEEN USED MORE THAN ONCE. ONLY THE LAST 
             DEFINITION IS CONSIDERED.
  *ELEMENT, TYPE=C3D8, ELSET=Elset910

 ***WARNING: ELEMENT LABEL 910 HAS BEEN USED MORE THAN ONCE. ONLY THE LAST 
             DEFINITION IS CONSIDERED.
  *ELEMENT, TYPE=C3D8, ELSET=Elset911

 ***WARNING: ELEMENT LABEL 911 HAS BEEN USED MORE THAN ONCE. ONLY THE LAST 
             DEFINITION IS CONSIDERED.
  *ELEMENT, TYPE=C3D8, ELSET=Elset912

 ***WARNING: ELEMENT LABEL 912 HAS BEEN USED MORE THAN ONCE. ONLY THE LAST 
             DEFINITION IS CONSIDERED.
  *ELEMENT, TYPE=C3D8, ELSET=Elset913

 ***WARNING: ELEMENT LABEL 913 HAS BEEN USED MORE THAN ONCE. ONLY THE LAST 
             DEFINITION IS CONSIDERED.
  *ELEMENT, TYPE=C3D8, ELSET=Elset914

 ***WARNING: ELEMENT LABEL 914 HAS BEEN USED MORE THAN ONCE. ONLY THE LAST 
             DEFINITION IS CONSIDERED.
  *ELEMENT, TYPE=C3D8, ELSET=Elset915

 ***WARNING: ELEMENT LABEL 915 HAS BEEN USED MORE THAN ONCE. ONLY THE LAST 
             DEFINITION IS CONSIDERED.
  *ELEMENT, TYPE=C3D8, ELSET=Elset916

 ***WARNING: ELEMENT LABEL 916 HAS BEEN USED MORE THAN ONCE. ONLY THE LAST 
             DEFINITION IS CONSIDERED.
  *ELEMENT, TYPE=C3D8, ELSET=Elset917

 ***WARNING: ELEMENT LABEL 917 HAS BEEN USED MORE THAN ONCE. ONLY THE LAST 
             DEFINITION IS CONSIDERED.
  *ELEMENT, TYPE=C3D8, ELSET=Elset937

 ***WARNING: ELEMENT LABEL 937 HAS BEEN USED MORE THAN ONCE. ONLY THE LAST 
             DEFINITION IS CONSIDERED.
  *ELEMENT, TYPE=C3D8, ELSET=Elset938

 ***WARNING: ELEMENT LABEL 938 HAS BEEN USED MORE THAN ONCE. ONLY THE LAST 
             DEFINITION IS CONSIDERED.
  *ELEMENT, TYPE=C3D8, ELSET=Elset939

 ***WARNING: ELEMENT LABEL 939 HAS BEEN USED MORE THAN ONCE. ONLY THE LAST 
             DEFINITION IS CONSIDERED.
  *ELEMENT, TYPE=C3D8, ELSET=Elset940

 ***WARNING: ELEMENT LABEL 940 HAS BEEN USED MORE THAN ONCE. ONLY THE LAST 
             DEFINITION IS CONSIDERED.
  *ELEMENT, TYPE=C3D8, ELSET=Elset941

 ***WARNING: ELEMENT LABEL 941 HAS BEEN USED MORE THAN ONCE. ONLY THE LAST 
             DEFINITION IS CONSIDERED.
  *ELEMENT, TYPE=C3D8, ELSET=Elset942

 ***WARNING: ELEMENT LABEL 942 HAS BEEN USED MORE THAN ONCE. ONLY THE LAST 
             DEFINITION IS CONSIDERED.
  *ELEMENT, TYPE=C3D8, ELSET=Elset943

 ***WARNING: ELEMENT LABEL 943 HAS BEEN USED MORE THAN ONCE. ONLY THE LAST 
             DEFINITION IS CONSIDERED.
  *ELEMENT, TYPE=C3D8, ELSET=Elset944

 ***WARNING: ELEMENT LABEL 944 HAS BEEN USED MORE THAN ONCE. ONLY THE LAST 
             DEFINITION IS CONSIDERED.
  *ELEMENT, TYPE=C3D8, ELSET=Elset945

 ***WARNING: ELEMENT LABEL 945 HAS BEEN USED MORE THAN ONCE. ONLY THE LAST 
             DEFINITION IS CONSIDERED.
  *ELEMENT, TYPE=C3D8, ELSET=Elset946

 ***WARNING: ELEMENT LABEL 946 HAS BEEN USED MORE THAN ONCE. ONLY THE LAST 
             DEFINITION IS CONSIDERED.
  *ELEMENT, TYPE=C3D8, ELSET=Elset947

 ***WARNING: ELEMENT LABEL 947 HAS BEEN USED MORE THAN ONCE. ONLY THE LAST 
             DEFINITION IS CONSIDERED.
  *ELEMENT, TYPE=C3D8, ELSET=Elset948

 ***WARNING: ELEMENT LABEL 948 HAS BEEN USED MORE THAN ONCE. ONLY THE LAST 
             DEFINITION IS CONSIDERED.
  *ELEMENT, TYPE=C3D8, ELSET=Elset970

 ***WARNING: ELEMENT LABEL 970 HAS BEEN USED MORE THAN ONCE. ONLY THE LAST 
             DEFINITION IS CONSIDERED.
  *ELEMENT, TYPE=C3D8, ELSET=Elset971

 ***WARNING: ELEMENT LABEL 971 HAS BEEN USED MORE THAN ONCE. ONLY THE LAST 
             DEFINITION IS CONSIDERED.
  *ELEMENT, TYPE=C3D8, ELSET=Elset972

 ***WARNING: ELEMENT LABEL 972 HAS BEEN USED MORE THAN ONCE. ONLY THE LAST 
             DEFINITION IS CONSIDERED.
  *ELEMENT, TYPE=C3D8, ELSET=Elset973

 ***WARNING: ELEMENT LABEL 973 HAS BEEN USED MORE THAN ONCE. ONLY THE LAST 
             DEFINITION IS CONSIDERED.
  *ELEMENT, TYPE=C3D8, ELSET=Elset974

 ***WARNING: ELEMENT LABEL 974 HAS BEEN USED MORE THAN ONCE. ONLY THE LAST 
             DEFINITION IS CONSIDERED.
  *ELEMENT, TYPE=C3D8, ELSET=Elset975

 ***WARNING: ELEMENT LABEL 975 HAS BEEN USED MORE THAN ONCE. ONLY THE LAST 
             DEFINITION IS CONSIDERED.
  *ELEMENT, TYPE=C3D8, ELSET=Elset976

 ***WARNING: ELEMENT LABEL 976 HAS BEEN USED MORE THAN ONCE. ONLY THE LAST 
             DEFINITION IS CONSIDERED.
  *ELEMENT, TYPE=C3D8, ELSET=Elset977

 ***WARNING: ELEMENT LABEL 977 HAS BEEN USED MORE THAN ONCE. ONLY THE LAST 
             DEFINITION IS CONSIDERED.
  *ELEMENT, TYPE=C3D8, ELSET=Elset978

 ***WARNING: ELEMENT LABEL 978 HAS BEEN USED MORE THAN ONCE. ONLY THE LAST 
             DEFINITION IS CONSIDERED.
  *NSET, NSET=TOPNODES
  *NSET, NSET=BOTNODES
  *NODE
  *NSET, NSET=REF_NODE
  *INCLUDE, input=/home/ms20s284/FRACTIB/04_Results/03_hFE/432_L_77_F/Steps/Step01.inp

  *** INPUT DATA IS READ FROM FILE /home/ms20s284/FRACTIB/04_Results/03_hFE/432_L_77_F/Steps/Step01.inp                                                                                                                                                                                           

  *INCLUDE, input=/home/ms20s284/FRACTIB/04_Results/03_hFE/432_L_77_F/Steps/Step02.inp

  *** INPUT DATA IS READ FROM FILE /home/ms20s284/FRACTIB/04_Results/03_hFE/432_L_77_F/Steps/Step02.inp                                                                                                                                                                                           

  *INCLUDE, input=/home/ms20s284/FRACTIB/04_Results/03_hFE/432_L_77_F/Steps/Step03.inp

  *** INPUT DATA IS READ FROM FILE /home/ms20s284/FRACTIB/04_Results/03_hFE/432_L_77_F/Steps/Step03.inp                                                                                                                                                                                           

  *INCLUDE, input=/home/ms20s284/FRACTIB/04_Results/03_hFE/432_L_77_F/Steps/Step04.inp

  *** INPUT DATA IS READ FROM FILE /home/ms20s284/FRACTIB/04_Results/03_hFE/432_L_77_F/Steps/Step04.inp                                                                                                                                                                                           

  *INCLUDE, input=/home/ms20s284/FRACTIB/04_Results/03_hFE/432_L_77_F/Steps/Step05.inp

  *** INPUT DATA IS READ FROM FILE /home/ms20s284/FRACTIB/04_Results/03_hFE/432_L_77_F/Steps/Step05.inp                                                                                                                                                                                           

  *INCLUDE, input=/home/ms20s284/FRACTIB/04_Results/03_hFE/432_L_77_F/Steps/Step06.inp

  *** INPUT DATA IS READ FROM FILE /home/ms20s284/FRACTIB/04_Results/03_hFE/432_L_77_F/Steps/Step06.inp                                                                                                                                                                                           

  *INCLUDE, input=/home/ms20s284/FRACTIB/04_Results/03_hFE/432_L_77_F/Steps/Step07.inp

  *** INPUT DATA IS READ FROM FILE /home/ms20s284/FRACTIB/04_Results/03_hFE/432_L_77_F/Steps/Step07.inp                                                                                                                                                                                           

  *INCLUDE, input=/home/ms20s284/FRACTIB/04_Results/03_hFE/432_L_77_F/Steps/Step08.inp

  *** INPUT DATA IS READ FROM FILE /home/ms20s284/FRACTIB/04_Results/03_hFE/432_L_77_F/Steps/Step08.inp                                                                                                                                                                                           

  *INCLUDE, input=/home/ms20s284/FRACTIB/04_Results/03_hFE/432_L_77_F/Steps/Step09.inp

  *** INPUT DATA IS READ FROM FILE /home/ms20s284/FRACTIB/04_Results/03_hFE/432_L_77_F/Steps/Step09.inp                                                                                                                                                                                           

  *INCLUDE, input=/home/ms20s284/FRACTIB/04_Results/03_hFE/432_L_77_F/Steps/Step10.inp

  *** INPUT DATA IS READ FROM FILE /home/ms20s284/FRACTIB/04_Results/03_hFE/432_L_77_F/Steps/Step10.inp                                                                                                                                                                                           

  *INCLUDE, input=/home/ms20s284/FRACTIB/04_Results/03_hFE/432_L_77_F/Steps/Step11.inp

  *** INPUT DATA IS READ FROM FILE /home/ms20s284/FRACTIB/04_Results/03_hFE/432_L_77_F/Steps/Step11.inp                                                                                                                                                                                           

  *INCLUDE, input=/home/ms20s284/FRACTIB/04_Results/03_hFE/432_L_77_F/Steps/Step12.inp

  *** INPUT DATA IS READ FROM FILE /home/ms20s284/FRACTIB/04_Results/03_hFE/432_L_77_F/Steps/Step12.inp                                                                                                                                                                                           

  *INCLUDE, input=/home/ms20s284/FRACTIB/04_Results/03_hFE/432_L_77_F/Steps/Step13.inp

  *** INPUT DATA IS READ FROM FILE /home/ms20s284/FRACTIB/04_Results/03_hFE/432_L_77_F/Steps/Step13.inp                                                                                                                                                                                           

  *INCLUDE, input=/home/ms20s284/FRACTIB/04_Results/03_hFE/432_L_77_F/Steps/Step14.inp

  *** INPUT DATA IS READ FROM FILE /home/ms20s284/FRACTIB/04_Results/03_hFE/432_L_77_F/Steps/Step14.inp                                                                                                                                                                                           

  *INCLUDE, input=/home/ms20s284/FRACTIB/04_Results/03_hFE/432_L_77_F/Steps/Step15.inp

  *** INPUT DATA IS READ FROM FILE /home/ms20s284/FRACTIB/04_Results/03_hFE/432_L_77_F/Steps/Step15.inp                                                                                                                                                                                           

  *INCLUDE, input=/home/ms20s284/FRACTIB/04_Results/03_hFE/432_L_77_F/Steps/Step16.inp

  *** INPUT DATA IS READ FROM FILE /home/ms20s284/FRACTIB/04_Results/03_hFE/432_L_77_F/Steps/Step16.inp                                                                                                                                                                                           

  *INCLUDE, input=/home/ms20s284/FRACTIB/04_Results/03_hFE/432_L_77_F/Steps/Step17.inp

  *** INPUT DATA IS READ FROM FILE /home/ms20s284/FRACTIB/04_Results/03_hFE/432_L_77_F/Steps/Step17.inp                                                                                                                                                                                           

  *INCLUDE, input=/home/ms20s284/FRACTIB/04_Results/03_hFE/432_L_77_F/Steps/Step18.inp

  *** INPUT DATA IS READ FROM FILE /home/ms20s284/FRACTIB/04_Results/03_hFE/432_L_77_F/Steps/Step18.inp                                                                                                                                                                                           

  *INCLUDE, input=/home/ms20s284/FRACTIB/04_Results/03_hFE/432_L_77_F/Steps/Step19.inp

  *** INPUT DATA IS READ FROM FILE /home/ms20s284/FRACTIB/04_Results/03_hFE/432_L_77_F/Steps/Step19.inp                                                                                                                                                                                           

  *INCLUDE, input=/home/ms20s284/FRACTIB/04_Results/03_hFE/432_L_77_F/Steps/Step20.inp

  *** INPUT DATA IS READ FROM FILE /home/ms20s284/FRACTIB/04_Results/03_hFE/432_L_77_F/Steps/Step20.inp                                                                                                                                                                                           

  *INCLUDE, input=/home/ms20s284/FRACTIB/04_Results/03_hFE/432_L_77_F/Steps/Step21.inp

  *** INPUT DATA IS READ FROM FILE /home/ms20s284/FRACTIB/04_Results/03_hFE/432_L_77_F/Steps/Step21.inp                                                                                                                                                                                           

  *INCLUDE, input=/home/ms20s284/FRACTIB/04_Results/03_hFE/432_L_77_F/Steps/Step22.inp

  *** INPUT DATA IS READ FROM FILE /home/ms20s284/FRACTIB/04_Results/03_hFE/432_L_77_F/Steps/Step22.inp                                                                                                                                                                                           

  *INCLUDE, input=/home/ms20s284/FRACTIB/04_Results/03_hFE/432_L_77_F/Steps/Step23.inp

  *** INPUT DATA IS READ FROM FILE /home/ms20s284/FRACTIB/04_Results/03_hFE/432_L_77_F/Steps/Step23.inp                                                                                                                                                                                           

  *INCLUDE, input=/home/ms20s284/FRACTIB/04_Results/03_hFE/432_L_77_F/Steps/Step24.inp

  *** INPUT DATA IS READ FROM FILE /home/ms20s284/FRACTIB/04_Results/03_hFE/432_L_77_F/Steps/Step24.inp                                                                                                                                                                                           

  *INCLUDE, input=/home/ms20s284/FRACTIB/04_Results/03_hFE/432_L_77_F/Steps/Step25.inp

  *** INPUT DATA IS READ FROM FILE /home/ms20s284/FRACTIB/04_Results/03_hFE/432_L_77_F/Steps/Step25.inp                                                                                                                                                                                           

  *INCLUDE, input=/home/ms20s284/FRACTIB/04_Results/03_hFE/432_L_77_F/Steps/Step26.inp

  *** INPUT DATA IS READ FROM FILE /home/ms20s284/FRACTIB/04_Results/03_hFE/432_L_77_F/Steps/Step26.inp                                                                                                                                                                                           

  *INCLUDE, input=/home/ms20s284/FRACTIB/04_Results/03_hFE/432_L_77_F/Steps/Step27.inp

  *** INPUT DATA IS READ FROM FILE /home/ms20s284/FRACTIB/04_Results/03_hFE/432_L_77_F/Steps/Step27.inp                                                                                                                                                                                           

  *INCLUDE, input=/home/ms20s284/FRACTIB/04_Results/03_hFE/432_L_77_F/Steps/Step28.inp

  *** INPUT DATA IS READ FROM FILE /home/ms20s284/FRACTIB/04_Results/03_hFE/432_L_77_F/Steps/Step28.inp                                                                                                                                                                                           

  *INCLUDE, input=/home/ms20s284/FRACTIB/04_Results/03_hFE/432_L_77_F/Steps/Step29.inp

  *** INPUT DATA IS READ FROM FILE /home/ms20s284/FRACTIB/04_Results/03_hFE/432_L_77_F/Steps/Step29.inp                                                                                                                                                                                           

  *INCLUDE, input=/home/ms20s284/FRACTIB/04_Results/03_hFE/432_L_77_F/Steps/Step30.inp

  *** INPUT DATA IS READ FROM FILE /home/ms20s284/FRACTIB/04_Results/03_hFE/432_L_77_F/Steps/Step30.inp                                                                                                                                                                                           

  *INCLUDE, input=/home/ms20s284/FRACTIB/04_Results/03_hFE/432_L_77_F/Steps/Step31.inp

  *** INPUT DATA IS READ FROM FILE /home/ms20s284/FRACTIB/04_Results/03_hFE/432_L_77_F/Steps/Step31.inp                                                                                                                                                                                           

  *INCLUDE, input=/home/ms20s284/FRACTIB/04_Results/03_hFE/432_L_77_F/Steps/Step32.inp

  *** INPUT DATA IS READ FROM FILE /home/ms20s284/FRACTIB/04_Results/03_hFE/432_L_77_F/Steps/Step32.inp                                                                                                                                                                                           

  *INCLUDE, input=/home/ms20s284/FRACTIB/04_Results/03_hFE/432_L_77_F/Steps/Step33.inp

  *** INPUT DATA IS READ FROM FILE /home/ms20s284/FRACTIB/04_Results/03_hFE/432_L_77_F/Steps/Step33.inp                                                                                                                                                                                           

  *INCLUDE, input=/home/ms20s284/FRACTIB/04_Results/03_hFE/432_L_77_F/Steps/Step34.inp

  *** INPUT DATA IS READ FROM FILE /home/ms20s284/FRACTIB/04_Results/03_hFE/432_L_77_F/Steps/Step34.inp                                                                                                                                                                                           

  *INCLUDE, input=/home/ms20s284/FRACTIB/04_Results/03_hFE/432_L_77_F/Steps/Step35.inp

  *** INPUT DATA IS READ FROM FILE /home/ms20s284/FRACTIB/04_Results/03_hFE/432_L_77_F/Steps/Step35.inp                                                                                                                                                                                           

  *INCLUDE, input=/home/ms20s284/FRACTIB/04_Results/03_hFE/432_L_77_F/Steps/Step36.inp

  *** INPUT DATA IS READ FROM FILE /home/ms20s284/FRACTIB/04_Results/03_hFE/432_L_77_F/Steps/Step36.inp                                                                                                                                                                                           

  *INCLUDE, input=/home/ms20s284/FRACTIB/04_Results/03_hFE/432_L_77_F/Steps/Step37.inp

  *** INPUT DATA IS READ FROM FILE /home/ms20s284/FRACTIB/04_Results/03_hFE/432_L_77_F/Steps/Step37.inp                                                                                                                                                                                           

  *INCLUDE, input=/home/ms20s284/FRACTIB/04_Results/03_hFE/432_L_77_F/Steps/Step38.inp

  *** INPUT DATA IS READ FROM FILE /home/ms20s284/FRACTIB/04_Results/03_hFE/432_L_77_F/Steps/Step38.inp                                                                                                                                                                                           

  *INCLUDE, input=/home/ms20s284/FRACTIB/04_Results/03_hFE/432_L_77_F/Steps/Step39.inp

  *** INPUT DATA IS READ FROM FILE /home/ms20s284/FRACTIB/04_Results/03_hFE/432_L_77_F/Steps/Step39.inp                                                                                                                                                                                           

  *INCLUDE, input=/home/ms20s284/FRACTIB/04_Results/03_hFE/432_L_77_F/Steps/Step40.inp

  *** INPUT DATA IS READ FROM FILE /home/ms20s284/FRACTIB/04_Results/03_hFE/432_L_77_F/Steps/Step40.inp                                                                                                                                                                                           

  *INCLUDE, input=/home/ms20s284/FRACTIB/04_Results/03_hFE/432_L_77_F/Steps/Step41.inp

  *** INPUT DATA IS READ FROM FILE /home/ms20s284/FRACTIB/04_Results/03_hFE/432_L_77_F/Steps/Step41.inp                                                                                                                                                                                           

  *INCLUDE, input=/home/ms20s284/FRACTIB/04_Results/03_hFE/432_L_77_F/Steps/Step42.inp

  *** INPUT DATA IS READ FROM FILE /home/ms20s284/FRACTIB/04_Results/03_hFE/432_L_77_F/Steps/Step42.inp                                                                                                                                                                                           

[...]


                                INCREMENT    16 SUMMARY


 TIME INCREMENT COMPLETED  5.000E-02,  FRACTION OF STEP COMPLETED  0.800    
 STEP TIME COMPLETED       0.800    ,  TOTAL TIME COMPLETED         10.8    
  
  
  
  
                                       N O D E   O U T P U T
  
  
  
  
   THE FOLLOWING TABLE IS PRINTED FOR NODES BELONGING TO NODE SET REF_NODE
  
       NODE FOOT-  U1             U2             U3             UR1            UR2            UR3          
            NOTE
  
   10000000      1.1000000E-02 -4.3800000E-02  5.2600000E-02  3.6013008E-02  1.2091858E-02  7.3969663E-03
  
  
  
   THE FOLLOWING TABLE IS PRINTED FOR NODES BELONGING TO NODE SET REF_NODE
  
       NODE FOOT-  RF1            RF2            RF3            RM1            RM2            RM3          
            NOTE
  
   10000000      9.2540964E+01 -6.1154151E+03  1.3162429E+05  1.1653907E+06  7.1223919E+05  7.8483042E+04
  
  
  
   THE FOLLOWING TABLE IS PRINTED FOR NODES BELONGING TO NODE SET REF_NODE
  
       NODE FOOT-  CF1            CF2            CF3            CM1            CM2            CM3          
            NOTE
  
  ALL VALUES IN THIS TABLE ARE ZERO


                                INCREMENT    17 SUMMARY


 TIME INCREMENT COMPLETED  5.000E-02,  FRACTION OF STEP COMPLETED  0.850    
 STEP TIME COMPLETED       0.850    ,  TOTAL TIME COMPLETED         10.9    
  
  
  
  
                                       N O D E   O U T P U T
  
  
  
  
   THE FOLLOWING TABLE IS PRINTED FOR NODES BELONGING TO NODE SET REF_NODE
  
       NODE FOOT-  U1             U2             U3             UR1            UR2            UR3          
            NOTE
  
   10000000      1.1500000E-02 -4.5100000E-02  5.3450000E-02  3.6512397E-02  1.2091828E-02  7.4999884E-03
  
  
  
   THE FOLLOWING TABLE IS PRINTED FOR NODES BELONGING TO NODE SET REF_NODE
  
       NODE FOOT-  RF1            RF2            RF3            RM1            RM2            RM3          
            NOTE
  
   10000000      1.1411259E+02 -6.2341373E+03  1.3348560E+05  1.1868122E+06  7.1591060E+05  7.8689890E+04
  
  
  
   THE FOLLOWING TABLE IS PRINTED FOR NODES BELONGING TO NODE SET REF_NODE
  
       NODE FOOT-  CF1            CF2            CF3            CM1            CM2            CM3          
            NOTE
  
  ALL VALUES IN THIS TABLE ARE ZERO


                                INCREMENT    18 SUMMARY


 TIME INCREMENT COMPLETED  5.000E-02,  FRACTION OF STEP COMPLETED  0.900    
 STEP TIME COMPLETED       0.900    ,  TOTAL TIME COMPLETED         10.9    
  
  
  
  
                                       N O D E   O U T P U T
  
  
  
  
   THE FOLLOWING TABLE IS PRINTED FOR NODES BELONGING TO NODE SET REF_NODE
  
       NODE FOOT-  U1             U2             U3             UR1            UR2            UR3          
            NOTE
  
   10000000      1.2000000E-02 -4.6400000E-02  5.4300000E-02  3.7011786E-02  1.2091797E-02  7.6030104E-03
  
  
  
   THE FOLLOWING TABLE IS PRINTED FOR NODES BELONGING TO NODE SET REF_NODE
  
       NODE FOOT-  RF1            RF2            RF3            RM1            RM2            RM3          
            NOTE
  
   10000000      1.3593570E+02 -6.3513514E+03  1.3536484E+05  1.2082123E+06  7.1965040E+05  7.8898431E+04
  
  
  
   THE FOLLOWING TABLE IS PRINTED FOR NODES BELONGING TO NODE SET REF_NODE
  
       NODE FOOT-  CF1            CF2            CF3            CM1            CM2            CM3          
            NOTE
  
  ALL VALUES IN THIS TABLE ARE ZERO


                                INCREMENT    19 SUMMARY


 TIME INCREMENT COMPLETED  5.000E-02,  FRACTION OF STEP COMPLETED  0.950    
 STEP TIME COMPLETED       0.950    ,  TOTAL TIME COMPLETED         11.0    
  
  
  
  
                                       N O D E   O U T P U T
  
  
  
  
   THE FOLLOWING TABLE IS PRINTED FOR NODES BELONGING TO NODE SET REF_NODE
  
       NODE FOOT-  U1             U2             U3             UR1            UR2            UR3          
            NOTE
  
   10000000      1.2500000E-02 -4.7700000E-02  5.5150000E-02  3.7511175E-02  1.2091766E-02  7.7060324E-03
  
  
  
   THE FOLLOWING TABLE IS PRINTED FOR NODES BELONGING TO NODE SET REF_NODE
  
       NODE FOOT-  RF1            RF2            RF3            RM1            RM2            RM3          
            NOTE
  
   10000000      1.5821307E+02 -6.4668034E+03  1.3726069E+05  1.2295417E+06  7.2348610E+05  7.9104950E+04
  
  
  
   THE FOLLOWING TABLE IS PRINTED FOR NODES BELONGING TO NODE SET REF_NODE
  
       NODE FOOT-  CF1            CF2            CF3            CM1            CM2            CM3          
            NOTE
  
  ALL VALUES IN THIS TABLE ARE ZERO


                                INCREMENT    20 SUMMARY


 TIME INCREMENT COMPLETED  5.000E-02,  FRACTION OF STEP COMPLETED   1.00    
 STEP TIME COMPLETED        1.00    ,  TOTAL TIME COMPLETED         11.0    
  
  
  
  
                                       N O D E   O U T P U T
  
  
  
  
   THE FOLLOWING TABLE IS PRINTED FOR NODES BELONGING TO NODE SET REF_NODE
  
       NODE FOOT-  U1             U2             U3             UR1            UR2            UR3          
            NOTE
  
   10000000      1.3000000E-02 -4.9000000E-02  5.6000000E-02  3.8010565E-02  1.2091735E-02  7.8090545E-03
  
  
  
   THE FOLLOWING TABLE IS PRINTED FOR NODES BELONGING TO NODE SET REF_NODE
  
       NODE FOOT-  RF1            RF2            RF3            RM1            RM2            RM3          
            NOTE
  
   10000000      1.8109399E+02 -6.5807035E+03  1.3917624E+05  1.2508693E+06  7.2739699E+05  7.9310929E+04
  
  
  
   THE FOLLOWING TABLE IS PRINTED FOR NODES BELONGING TO NODE SET REF_NODE
  
       NODE FOOT-  CF1            CF2            CF3            CM1            CM2            CM3          
            NOTE
  
  ALL VALUES IN THIS TABLE ARE ZERO
1

   Abaqus 2021                                  Date 22-Feb-2023   Time 18:07:45
   For use by UNIVERSITAET BERN under license from Dassault Systemes or its subsidiary.

                                                                                               STEP   12  INCREMENT    1
                                                                                          TIME COMPLETED IN THIS STEP   0.00    


                        S T E P      12     S T A T I C   A N A L Y S I S


                                                                                          

     AUTOMATIC TIME CONTROL WITH -
          A SUGGESTED INITIAL TIME INCREMENT OF                5.000E-02
          AND A TOTAL TIME PERIOD OF                            1.00    
          THE MINIMUM TIME INCREMENT ALLOWED IS                5.000E-05
          THE MAXIMUM TIME INCREMENT ALLOWED IS                5.000E-02

     LINEAR EQUATION SOLVER TYPE         DIRECT SPARSE

          LARGE DISPLACEMENT THEORY WILL BE USED

          UNSYMMETRIC MATRIX STORAGE AND SOLUTION WILL BE USED
  
                   M E M O R Y   E S T I M A T E
  
 PROCESS      FLOATING PT       MINIMUM MEMORY        MEMORY TO
              OPERATIONS           REQUIRED          MINIMIZE I/O
             PER ITERATION           (MB)               (MB)
  
     1          9.51E+06               17                 26
  
 NOTE:
      (1) SINCE ABAQUS DOES NOT PRE-ALLOCATE MEMORY AND ONLY ALLOCATES MEMORY AS NEEDED DURING THE ANALYSIS,
          THE MEMORY REQUIREMENT PRINTED HERE CAN ONLY BE VIEWED AS A GENERAL GUIDELINE BASED ON THE BEST
          KNOWLEDGE AVAILABLE AT THE BEGINNING OF A STEP BEFORE THE SOLUTION PROCESS HAS BEGUN.
      (2) THE ESTIMATE IS NORMALLY UPDATED AT THE BEGINNING OF EVERY STEP. IT IS THE MAXIMUM VALUE OF THE
          ESTIMATE FROM THE CURRENT STEP TO THE LAST STEP OF THE ANALYSIS, WITH UNSYMMETRIC SOLUTION TAKEN
          INTO ACCOUNT IF APPLICABLE. 
      (3) SINCE THE ESTIMATE IS BASED ON THE ACTIVE DEGREES OF FREEDOM IN THE FIRST ITERATION OF THE 
          CURRENT STEP, THE MEMORY ESTIMATE MIGHT BE SIGNIFICANTLY DIFFERENT THAN ACTUAL USAGE FOR 
          PROBLEMS WITH SUBSTANTIAL CHANGES IN ACTIVE DEGREES OF FREEDOM BETWEEN STEPS (OR EVEN WITHIN
          THE SAME STEP). EXAMPLES ARE: PROBLEMS WITH SIGNIFICANT CONTACT CHANGES, PROBLEMS WITH MODEL
          CHANGE, PROBLEMS WITH BOTH STATIC STEP AND STEADY STATE DYNAMIC PROCEDURES WHERE ACOUSTIC 
          ELEMENTS WILL ONLY BE ACTIVATED IN THE STEADY STATE DYNAMIC STEPS.
      (4) FOR MULTI-PROCESS EXECUTION, THE ESTIMATED VALUE OF FLOATING POINT OPERATIONS FOR EACH PROCESS
          IS BASED ON AN INITIAL SCHEDULING OF OPERATIONS AND MIGHT NOT REFLECT THE ACTUAL FLOATING 
          POINT OPERATIONS COMPLETED ON EACH PROCESS. OPERATIONS ARE DYNAMICALLY BALANCED DURING EXECUTION, 
          SO THE ACTUAL BALANCE OF OPERATIONS BETWEEN PROCESSES IS EXPECTED TO BE BETTER THAN THE ESTIMATE
          PRINTED HERE.
      (5) THE UPPER LIMIT OF MEMORY THAT CAN BE ALLOCATED BY ABAQUS WILL IN GENERAL DEPEND ON THE VALUE OF
          THE "MEMORY" PARAMETER AND THE AMOUNT OF PHYSICAL MEMORY AVAILABLE ON THE MACHINE. PLEASE SEE
          THE "ABAQUS ANALYSIS USER'S MANUAL" FOR MORE DETAILS. THE ACTUAL USAGE OF MEMORY AND OF DISK
          SPACE FOR SCRATCH DATA WILL DEPEND ON THIS UPPER LIMIT AS WELL AS THE MEMORY REQUIRED TO MINIMIZE
          I/O. IF THE MEMORY UPPER LIMIT IS GREATER THAN THE MEMORY REQUIRED TO MINIMIZE I/O, THEN THE ACTUAL
          MEMORY USAGE WILL BE CLOSE TO THE ESTIMATED "MEMORY TO MINIMIZE I/O" VALUE, AND THE SCRATCH DISK
          USAGE WILL BE CLOSE-TO-ZERO; OTHERWISE, THE ACTUAL MEMORY USED WILL BE CLOSE TO THE PREVIOUSLY
          MENTIONED MEMORY LIMIT, AND THE SCRATCH DISK USAGE WILL BE ROUGHLY PROPORTIONAL TO THE DIFFERENCE
          BETWEEN THE ESTIMATED "MEMORY TO MINIMIZE I/O" AND THE MEMORY UPPER LIMIT. HOWEVER ACCURATE
          ESTIMATE OF THE SCRATCH DISK SPACE IS NOT POSSIBLE.
      (6) USING "*RESTART, WRITE" CAN GENERATE A LARGE AMOUNT OF DATA WRITTEN IN THE WORK DIRECTORY.


                                INCREMENT     1 SUMMARY


 TIME INCREMENT COMPLETED  1.250E-02,  FRACTION OF STEP COMPLETED  1.250E-02
 STEP TIME COMPLETED       1.250E-02,  TOTAL TIME COMPLETED         11.0    
  
  
  
  
                                       N O D E   O U T P U T
  
  
  
  
   THE FOLLOWING TABLE IS PRINTED FOR NODES BELONGING TO NODE SET REF_NODE
  
       NODE FOOT-  U1             U2             U3             UR1            UR2            UR3          
            NOTE
  
   10000000      1.4637500E-02 -5.7300000E-02  5.8937500E-02  5.7194342E-02  1.8189367E-02  1.0308671E-02
  
  
  
   THE FOLLOWING TABLE IS PRINTED FOR NODES BELONGING TO NODE SET REF_NODE
  
       NODE FOOT-  RF1            RF2            RF3            RM1            RM2            RM3          
            NOTE
  
   10000000      1.5762497E+03 -9.6708402E+03  2.3225559E+05  2.2365950E+06  1.2493044E+06  8.0925316E+04
  
  
  
   THE FOLLOWING TABLE IS PRINTED FOR NODES BELONGING TO NODE SET REF_NODE
  
       NODE FOOT-  CF1            CF2            CF3            CM1            CM2            CM3          
            NOTE
  
  ALL VALUES IN THIS TABLE ARE ZERO


                                INCREMENT     2 SUMMARY


 TIME INCREMENT COMPLETED  3.125E-03,  FRACTION OF STEP COMPLETED  1.562E-02
 STEP TIME COMPLETED       1.562E-02,  TOTAL TIME COMPLETED         11.0    
  
  
  
  
                                       N O D E   O U T P U T
  
  
  
  
   THE FOLLOWING TABLE IS PRINTED FOR NODES BELONGING TO NODE SET REF_NODE
  
       NODE FOOT-  U1             U2             U3             UR1            UR2            UR3          
            NOTE
  
   10000000      1.5046875E-02 -5.9375000E-02  5.9671875E-02  6.1990290E-02  1.9713777E-02  1.0933545E-02
  
  
  
   THE FOLLOWING TABLE IS PRINTED FOR NODES BELONGING TO NODE SET REF_NODE
  
       NODE FOOT-  RF1            RF2            RF3            RM1            RM2            RM3          
            NOTE
  
   10000000      2.6659522E+03 -1.0833182E+04  2.7952191E+05  2.7727842E+06  1.5280851E+06  7.3629038E+04
  
  
  
   THE FOLLOWING TABLE IS PRINTED FOR NODES BELONGING TO NODE SET REF_NODE
  
       NODE FOOT-  CF1            CF2            CF3            CM1            CM2            CM3          
            NOTE
  
  ALL VALUES IN THIS TABLE ARE ZERO


                                INCREMENT     3 SUMMARY


 TIME INCREMENT COMPLETED  4.688E-03,  FRACTION OF STEP COMPLETED  2.031E-02
 STEP TIME COMPLETED       2.031E-02,  TOTAL TIME COMPLETED         11.0    
  
  
  
  
                                       N O D E   O U T P U T
  
  
  
  
   THE FOLLOWING TABLE IS PRINTED FOR NODES BELONGING TO NODE SET REF_NODE
  
       NODE FOOT-  U1             U2             U3             UR1            UR2            UR3          
            NOTE
  
   10000000      1.5660937E-02 -6.2487500E-02  6.0773437E-02  6.9184215E-02  2.2000391E-02  1.1870834E-02
  
  
  
   THE FOLLOWING TABLE IS PRINTED FOR NODES BELONGING TO NODE SET REF_NODE
  
       NODE FOOT-  RF1            RF2            RF3            RM1            RM2            RM3          
            NOTE
  
   10000000      6.6553254E+03 -1.6186421E+04  4.7820863E+05  5.2323509E+06  2.7793261E+06  5.4995169E+04
  
  
  
   THE FOLLOWING TABLE IS PRINTED FOR NODES BELONGING TO NODE SET REF_NODE
  
       NODE FOOT-  CF1            CF2            CF3            CM1            CM2            CM3          
            NOTE
  
  ALL VALUES IN THIS TABLE ARE ZERO


                                INCREMENT     4 SUMMARY


 TIME INCREMENT COMPLETED  4.395E-04,  FRACTION OF STEP COMPLETED  2.075E-02
 STEP TIME COMPLETED       2.075E-02,  TOTAL TIME COMPLETED         11.0    
  
  
  
  
                                       N O D E   O U T P U T
  
  
  
  
   THE FOLLOWING TABLE IS PRINTED FOR NODES BELONGING TO NODE SET REF_NODE
  
       NODE FOOT-  U1             U2             U3             UR1            UR2            UR3          
            NOTE
  
   10000000      1.5718506E-02 -6.2779297E-02  6.0876709E-02  6.9858645E-02  2.2214761E-02  1.1958703E-02
  
  
  
   THE FOLLOWING TABLE IS PRINTED FOR NODES BELONGING TO NODE SET REF_NODE
  
       NODE FOOT-  RF1            RF2            RF3            RM1            RM2            RM3          
            NOTE
  
   10000000      7.5874471E+03 -1.7535576E+04  5.2744854E+05  5.8676233E+06  3.1025755E+06  5.1337034E+04
  
  
  
   THE FOLLOWING TABLE IS PRINTED FOR NODES BELONGING TO NODE SET REF_NODE
  
       NODE FOOT-  CF1            CF2            CF3            CM1            CM2            CM3          
            NOTE
  
  ALL VALUES IN THIS TABLE ARE ZERO


                                INCREMENT     5 SUMMARY


 TIME INCREMENT COMPLETED  6.592E-04,  FRACTION OF STEP COMPLETED  2.141E-02
 STEP TIME COMPLETED       2.141E-02,  TOTAL TIME COMPLETED         11.0    
  
  
  
  
                                       N O D E   O U T P U T
  
  
  
  
   THE FOLLOWING TABLE IS PRINTED FOR NODES BELONGING TO NODE SET REF_NODE
  
       NODE FOOT-  U1             U2             U3             UR1            UR2            UR3          
            NOTE
  
   10000000      1.5804858E-02 -6.3216992E-02  6.1031616E-02  7.0870291E-02  2.2536317E-02  1.2090507E-02
  
  
  
   THE FOLLOWING TABLE IS PRINTED FOR NODES BELONGING TO NODE SET REF_NODE
  
       NODE FOOT-  RF1            RF2            RF3            RM1            RM2            RM3          
            NOTE
  
   10000000      9.6283383E+03 -2.0329988E+04  6.3410713E+05  7.2599227E+06  3.8138802E+06  4.2154362E+04
  
  
  
   THE FOLLOWING TABLE IS PRINTED FOR NODES BELONGING TO NODE SET REF_NODE
  
       NODE FOOT-  CF1            CF2            CF3            CM1            CM2            CM3          
            NOTE
  
  ALL VALUES IN THIS TABLE ARE ZERO


                                INCREMENT     6 SUMMARY


 TIME INCREMENT COMPLETED  2.472E-04,  FRACTION OF STEP COMPLETED  2.166E-02
 STEP TIME COMPLETED       2.166E-02,  TOTAL TIME COMPLETED         11.0    
  
  
  
  
                                       N O D E   O U T P U T
  
  
  
  
   THE FOLLOWING TABLE IS PRINTED FOR NODES BELONGING TO NODE SET REF_NODE
  
       NODE FOOT-  U1             U2             U3             UR1            UR2            UR3          
            NOTE
  
   10000000      1.5837241E-02 -6.3381128E-02  6.1089706E-02  7.1249658E-02  2.2656900E-02  1.2139933E-02
  
  
  
   THE FOLLOWING TABLE IS PRINTED FOR NODES BELONGING TO NODE SET REF_NODE
  
       NODE FOOT-  RF1            RF2            RF3            RM1            RM2            RM3          
            NOTE
  
   10000000      1.1134606E+04 -2.0977414E+04  6.9220115E+05  8.0255108E+06  4.2088263E+06  2.4746519E+04
  
  
  
   THE FOLLOWING TABLE IS PRINTED FOR NODES BELONGING TO NODE SET REF_NODE
  
       NODE FOOT-  CF1            CF2            CF3            CM1            CM2            CM3          
            NOTE
  
  ALL VALUES IN THIS TABLE ARE ZERO


                                INCREMENT     7 SUMMARY


 TIME INCREMENT COMPLETED  9.270E-05,  FRACTION OF STEP COMPLETED  2.175E-02
 STEP TIME COMPLETED       2.175E-02,  TOTAL TIME COMPLETED         11.0    
  
  
  
  
                                       N O D E   O U T P U T
  
  
  
  
   THE FOLLOWING TABLE IS PRINTED FOR NODES BELONGING TO NODE SET REF_NODE
  
       NODE FOOT-  U1             U2             U3             UR1            UR2            UR3          
            NOTE
  
   10000000      1.5849384E-02 -6.3442679E-02  6.1111490E-02  7.1391921E-02  2.2702119E-02  1.2158468E-02
  
  
  
   THE FOLLOWING TABLE IS PRINTED FOR NODES BELONGING TO NODE SET REF_NODE
  
       NODE FOOT-  RF1            RF2            RF3            RM1            RM2            RM3          
            NOTE
  
   10000000      2.3335909E+04 -6.7190028E+02  7.4406722E+05  8.7088792E+06  4.6074626E+06 -3.0939313E+05
  
  
  
   THE FOLLOWING TABLE IS PRINTED FOR NODES BELONGING TO NODE SET REF_NODE
  
       NODE FOOT-  CF1            CF2            CF3            CM1            CM2            CM3          
            NOTE
  
  ALL VALUES IN THIS TABLE ARE ZERO


                                INCREMENT     8 SUMMARY


 TIME INCREMENT COMPLETED  1.000E-35,  FRACTION OF STEP COMPLETED  2.175E-02
 STEP TIME COMPLETED       2.175E-02,  TOTAL TIME COMPLETED         11.0    
  
  
  
  
                                       N O D E   O U T P U T
  
  
  
  
   THE FOLLOWING TABLE IS PRINTED FOR NODES BELONGING TO NODE SET REF_NODE
  
       NODE FOOT-  U1             U2             U3             UR1            UR2            UR3          
            NOTE
  
   10000000      1.5849384E-02 -6.3442679E-02  6.1111490E-02  7.1391921E-02  2.2702119E-02  1.2158468E-02
  
  
  
   THE FOLLOWING TABLE IS PRINTED FOR NODES BELONGING TO NODE SET REF_NODE
  
       NODE FOOT-  RF1            RF2            RF3            RM1            RM2            RM3          
            NOTE
  
   10000000      2.3335909E+04 -6.7190028E+02  7.4406722E+05  8.7088792E+06  4.6074626E+06 -3.0939313E+05
  
  
  
   THE FOLLOWING TABLE IS PRINTED FOR NODES BELONGING TO NODE SET REF_NODE
  
       NODE FOOT-  CF1            CF2            CF3            CM1            CM2            CM3          
            NOTE
  
  ALL VALUES IN THIS TABLE ARE ZERO



                              ANALYSIS COMPLETE
                              WITH      2 ERROR MESSAGES ON THE MSG FILE
                              AND     586 WARNING MESSAGES ON THE DAT FILE
                              AND       8 WARNING MESSAGES ON THE MSG FILE



     JOB TIME SUMMARY
       USER TIME (SEC)      =   375.84    
       SYSTEM TIME (SEC)    =   111.56    
       TOTAL CPU TIME (SEC) =   487.40    
       WALLCLOCK TIME (SEC) =         37
