1

   Abaqus 2021.HF4                                  Date 24-Feb-2023   Time 15:42:44
   For use by UNIVERSITAET BERN under license from Dassault Systemes or its subsidiary.

                                                                                 
                                                                                 
 STEP    1     INCREMENT     1     STEP TIME    0.00    


                        S T E P       1     S T A T I C   A N A L Y S I S


                                                                                          

     AUTOMATIC TIME CONTROL WITH -
          A SUGGESTED INITIAL TIME INCREMENT OF                5.000E-02
          AND A TOTAL TIME PERIOD OF                            1.00    
          THE MINIMUM TIME INCREMENT ALLOWED IS                5.000E-05
          THE MAXIMUM TIME INCREMENT ALLOWED IS                5.000E-02

     LINEAR EQUATION SOLVER TYPE         DIRECT SPARSE

 CONVERGENCE TOLERANCE PARAMETERS FOR FORCE    
     CRITERION FOR RESIDUAL FORCE     FOR A NONLINEAR PROBLEM          5.000E-03
     CRITERION FOR DISP.    CORRECTION IN A NONLINEAR PROBLEM          1.000E-02
     INITIAL VALUE OF TIME AVERAGE FORCE                               1.000E-02
     AVERAGE FORCE     IS TIME AVERAGE FORCE    
     ALTERNATE CRIT. FOR RESIDUAL FORCE     FOR A NONLINEAR PROBLEM    2.000E-02
     CRITERION FOR ZERO FORCE     RELATIVE TO TIME AVRG. FORCE         1.000E-05
     CRITERION FOR RESIDUAL FORCE     WHEN THERE IS ZERO FLUX          1.000E-05
     CRITERION FOR DISP.    CORRECTION WHEN THERE IS ZERO FLUX         1.000E-03
     CRITERION FOR RESIDUAL FORCE     FOR A LINEAR INCREMENT           1.000E-08
     FIELD CONVERSION RATIO                                             1.00    
     CRITERION FOR ZERO FORCE     REL. TO TIME AVRG. MAX. FORCE        1.000E-05
     CRITERION FOR ZERO DISP.    RELATIVE TO CHARACTERISTIC LENGTH     1.000E-08

 CONVERGENCE TOLERANCE PARAMETERS FOR MOMENT   
     CRITERION FOR RESIDUAL MOMENT    FOR A NONLINEAR PROBLEM          5.000E-03
     CRITERION FOR ROTATION CORRECTION IN A NONLINEAR PROBLEM          1.000E-02
     INITIAL VALUE OF TIME AVERAGE MOMENT                              1.000E-02
     AVERAGE MOMENT    IS TIME AVERAGE MOMENT   
     ALTERNATE CRIT. FOR RESIDUAL MOMENT    FOR A NONLINEAR PROBLEM    2.000E-02
     CRITERION FOR ZERO MOMENT    RELATIVE TO TIME AVRG. MOMENT        1.000E-05
     CRITERION FOR RESIDUAL MOMENT    WHEN THERE IS ZERO FLUX          1.000E-05
     CRITERION FOR ROTATION CORRECTION WHEN THERE IS ZERO FLUX         1.000E-03
     CRITERION FOR RESIDUAL MOMENT    FOR A LINEAR INCREMENT           1.000E-08
     FIELD CONVERSION RATIO                                             1.00    
     CRITERION FOR ZERO MOMENT    REL. TO TIME AVRG. MAX. MOMENT       1.000E-05

     VOLUMETRIC STRAIN COMPATIBILITY TOLERANCE FOR HYBRID SOLIDS       1.000E-05
     AXIAL STRAIN COMPATIBILITY TOLERANCE FOR HYBRID BEAMS             1.000E-05
     TRANS. SHEAR STRAIN COMPATIBILITY TOLERANCE FOR HYBRID BEAMS      1.000E-05
     SOFT CONTACT CONSTRAINT COMPATIBILITY TOLERANCE FOR P>P0          5.000E-03
     SOFT CONTACT CONSTRAINT COMPATIBILITY TOLERANCE FOR P=0.0         0.100    
     CONTACT FORCE ERROR TOLERANCE FOR CONVERT SDI=YES                 1.00    
     DISPLACEMENT COMPATIBILITY TOLERANCE FOR DCOUP ELEMENTS           1.000E-05
     ROTATION COMPATIBILITY TOLERANCE FOR DCOUP ELEMENTS               1.000E-05

 EQUILIBRIUM WILL BE CHECKED FOR SEVERE DISCONTINUITY ITERATIONS

 TIME INCREMENTATION CONTROL PARAMETERS:
     FIRST EQUILIBRIUM ITERATION FOR CONSECUTIVE DIVERGENCE CHECK              4
     EQUILIBRIUM ITERATION AT WHICH LOG. CONVERGENCE RATE CHECK BEGINS         8
     EQUILIBRIUM ITERATION AFTER WHICH ALTERNATE RESIDUAL IS USED              9
     MAXIMUM EQUILIBRIUM ITERATIONS ALLOWED                                   16
     EQUILIBRIUM ITERATION COUNT FOR CUT-BACK IN NEXT INCREMENT               10
     MAXIMUM EQUILIB. ITERS IN TWO INCREMENTS FOR TIME INCREMENT INCREASE      4
     MAXIMUM ITERATIONS FOR SEVERE DISCONTINUITIES                            50
     MAXIMUM ATTEMPTS ALLOWED IN AN INCREMENT                                  5
     MAXIMUM DISCON. ITERS IN TWO INCREMENTS FOR TIME INCREMENT INCREASE      50
     MAXIMUM CONTACT AUGMENTATIONS FOR *SURFACE BEHAVIOR,AUGMENTED LAGRANGE   50
     CUT-BACK FACTOR AFTER DIVERGENCE                                 0.2500    
     CUT-BACK FACTOR FOR TOO SLOW CONVERGENCE                         0.5000    
     CUT-BACK FACTOR AFTER TOO MANY EQUILIBRIUM ITERATIONS            0.7500    
     CUT-BACK FACTOR AFTER TOO MANY SEVERE DISCONTINUITY ITERATIONS   0.2500    
     CUT-BACK FACTOR AFTER PROBLEMS IN ELEMENT ASSEMBLY               0.2500    
     INCREASE FACTOR AFTER TWO INCREMENTS THAT CONVERGE QUICKLY        1.500    
     MAX. TIME INCREMENT INCREASE FACTOR ALLOWED                       1.500    
     MAX. TIME INCREMENT INCREASE FACTOR ALLOWED (DYNAMICS)            1.250    
     MAX. TIME INCREMENT INCREASE FACTOR ALLOWED (DIFFUSION)           2.000    
     MINIMUM TIME INCREMENT RATIO FOR EXTRAPOLATION TO OCCUR          0.1000    
     MAX. RATIO OF TIME INCREMENT TO STABILITY LIMIT                   1.000    
     FRACTION OF STABILITY LIMIT FOR NEW TIME INCREMENT               0.9500    
     TIME INCREMENT INCREASE FACTOR BEFORE A TIME POINT                1.000    
     GLOBAL STABILIZATION CONTROL IS NOT USED

          PRINT OF INCREMENT NUMBER, TIME, ETC., EVERY    1  INCREMENTS

     THE MAXIMUM NUMBER OF INCREMENTS IN THIS STEP IS                    1000

          LARGE DISPLACEMENT THEORY WILL BE USED

          UNSYMMETRIC MATRIX STORAGE AND SOLUTION WILL BE USED

     LINEAR EXTRAPOLATION WILL BE USED

     CHARACTERISTIC ELEMENT LENGTH      1.25    

     DETAILS REGARDING ACTUAL SOLUTION WAVEFRONT REQUESTED

     DETAILED OUTPUT OF DIAGNOSTICS TO DATABASE REQUESTED

     PRINT OF INCREMENT NUMBER, TIME, ETC., TO THE MESSAGE FILE EVERY     1  INCREMENTS

     ELEMENT OPERATIONS WILL BE CARRIED OUT IN PARALLEL USING  24 PROCESSORS

     PARALLEL CONTACT TRACKING ENABLED


     COLLECTING MODEL CONSTRAINT INFORMATION FOR OVERCONSTRAINT CHECKS

     COLLECTING STEP CONSTRAINT INFORMATION FOR OVERCONSTRAINT CHECKS


  INCREMENT     1 STARTS. ATTEMPT NUMBER  1, TIME INCREMENT  5.000E-02
 
     INITIAL ELEMENT LOAD BALANCE
            PROCESS    1   THREAD     NUMBER OF ELEMENTS
                              1            13
                              2            13
                              3            13
                              4            13
                              5            26
                              6            13
                              7            13
                              8            13
                              9            13
                             10            15
                             11            13
                             12            13
                             13            13
                             14            13
                             15            13
                             16            13
                             17            13
                             18            13
                             19            13
                             20            13
                             21            13
                             22            13
                             23            13
                             24            13

  NUMBER OF EQUATIONS =      1116     NUMBER OF RHS =    1
  NUMBER OF FLOATING PT. OPERATIONS =  9.14E+06

  USING THE DIRECT SOLVER WITH  24 PROCESSORS

     CHECK POINT   START OF SOLVER    

     CHECK POINT  END OF SOLVER       

       ELAPSED USER TIME (SEC)      =  0.17000    
       ELAPSED SYSTEM TIME (SEC)    =  3.00000E-02
       ELAPSED TOTAL CPU TIME (SEC) =  0.20000    
       ELAPSED WALLCLOCK TIME (SEC) =          0

               CONVERGENCE CHECKS FOR EQUILIBRIUM ITERATION     1


 AVERAGE FORCE                       8.88       TIME AVG. FORCE        8.88    
 ALL FORCE     RESIDUALS ARE ZERO
 LARGEST INCREMENT OF DISP.         5.199E-02   AT NODE        466   DOF  3
 LARGEST CORRECTION TO DISP.        5.199E-02   AT NODE        466   DOF  3
          THE FORCE     EQUILIBRIUM RESPONSE WAS LINEAR IN THIS INCREMENT

 AVERAGE MOMENT                      0.00       TIME AVG. MOMENT       11.1    
                                                (FROM FORCE     FIELD)
 ALL MOMENT    RESIDUALS ARE ZERO
 LARGEST INCREMENT OF ROTATION      3.400E-03   AT NODE        212   DOF  5
 LARGEST CORRECTION TO ROTATION     3.400E-03   AT NODE        212   DOF  5
          THERE IS ZERO MOMENT    EVERYWHERE

 ITERATION SUMMARY FOR THE INCREMENT:   1 TOTAL ITERATIONS, OF WHICH
   0 ARE SEVERE DISCONTINUITY ITERATIONS AND  1 ARE EQUILIBRIUM ITERATIONS.

 TIME INCREMENT COMPLETED  5.000E-02,  FRACTION OF STEP COMPLETED  5.000E-02
 STEP TIME COMPLETED       5.000E-02,  TOTAL TIME COMPLETED        5.000E-02


  INCREMENT     2 STARTS. ATTEMPT NUMBER  1, TIME INCREMENT  5.000E-02

  NUMBER OF EQUATIONS =      1116     NUMBER OF RHS =    1
  NUMBER OF FLOATING PT. OPERATIONS =  9.14E+06

  USING THE DIRECT SOLVER WITH  24 PROCESSORS

     CHECK POINT   START OF SOLVER    

     CHECK POINT  END OF SOLVER       

       ELAPSED USER TIME (SEC)      =  0.14000    
       ELAPSED SYSTEM TIME (SEC)    =  3.00000E-02
       ELAPSED TOTAL CPU TIME (SEC) =  0.17000    
       ELAPSED WALLCLOCK TIME (SEC) =          0

               CONVERGENCE CHECKS FOR EQUILIBRIUM ITERATION     1


 AVERAGE FORCE                       14.9       TIME AVG. FORCE        11.9    
 ALL FORCE     RESIDUALS ARE ZERO
 LARGEST INCREMENT OF DISP.         5.199E-02   AT NODE        466   DOF  3
 LARGEST CORRECTION TO DISP.        1.612E-04   AT NODE        466   DOF  1
          THE FORCE     EQUILIBRIUM RESPONSE WAS LINEAR IN THIS INCREMENT

 AVERAGE MOMENT                      0.00       TIME AVG. MOMENT       11.1    
                                                (FROM FORCE     FIELD)
 ALL MOMENT    RESIDUALS ARE ZERO
 LARGEST INCREMENT OF ROTATION      3.400E-03   AT NODE        212   DOF  5
 LARGEST CORRECTION TO ROTATION     2.168E-19   AT NODE        212   DOF  4
          THERE IS ZERO MOMENT    EVERYWHERE

 ITERATION SUMMARY FOR THE INCREMENT:   1 TOTAL ITERATIONS, OF WHICH
   0 ARE SEVERE DISCONTINUITY ITERATIONS AND  1 ARE EQUILIBRIUM ITERATIONS.

 TIME INCREMENT COMPLETED  5.000E-02,  FRACTION OF STEP COMPLETED  0.100    
 STEP TIME COMPLETED       0.100    ,  TOTAL TIME COMPLETED        0.100    


  INCREMENT     3 STARTS. ATTEMPT NUMBER  1, TIME INCREMENT  5.000E-02

  NUMBER OF EQUATIONS =      1116     NUMBER OF RHS =    1
  NUMBER OF FLOATING PT. OPERATIONS =  9.14E+06

  USING THE DIRECT SOLVER WITH  24 PROCESSORS

     CHECK POINT   START OF SOLVER    

     CHECK POINT  END OF SOLVER       

       ELAPSED USER TIME (SEC)      =  0.13000    
       ELAPSED SYSTEM TIME (SEC)    =  3.00000E-02
       ELAPSED TOTAL CPU TIME (SEC) =  0.16000    
       ELAPSED WALLCLOCK TIME (SEC) =          0

               CONVERGENCE CHECKS FOR EQUILIBRIUM ITERATION     1


 AVERAGE FORCE                       20.6       TIME AVG. FORCE        14.8    
 ALL FORCE     RESIDUALS ARE ZERO
 LARGEST INCREMENT OF DISP.         5.198E-02   AT NODE        466   DOF  3
 LARGEST CORRECTION TO DISP.        1.612E-04   AT NODE        466   DOF  1
          THE FORCE     EQUILIBRIUM RESPONSE WAS LINEAR IN THIS INCREMENT

 AVERAGE MOMENT                      0.00       TIME AVG. MOMENT       14.8    
                                                (FROM FORCE     FIELD)
 ALL MOMENT    RESIDUALS ARE ZERO
 LARGEST INCREMENT OF ROTATION      3.400E-03   AT NODE        212   DOF  5
 LARGEST CORRECTION TO ROTATION     1.735E-18   AT NODE        212   DOF  5
          THERE IS ZERO MOMENT    EVERYWHERE

 ITERATION SUMMARY FOR THE INCREMENT:   1 TOTAL ITERATIONS, OF WHICH
   0 ARE SEVERE DISCONTINUITY ITERATIONS AND  1 ARE EQUILIBRIUM ITERATIONS.

 TIME INCREMENT COMPLETED  5.000E-02,  FRACTION OF STEP COMPLETED  0.150    
 STEP TIME COMPLETED       0.150    ,  TOTAL TIME COMPLETED        0.150    


  INCREMENT     4 STARTS. ATTEMPT NUMBER  1, TIME INCREMENT  5.000E-02

  NUMBER OF EQUATIONS =      1116     NUMBER OF RHS =    1
  NUMBER OF FLOATING PT. OPERATIONS =  9.14E+06

  USING THE DIRECT SOLVER WITH  24 PROCESSORS

     CHECK POINT   START OF SOLVER    

     CHECK POINT  END OF SOLVER       

       ELAPSED USER TIME (SEC)      =  9.00000E-02
       ELAPSED SYSTEM TIME (SEC)    =  4.00000E-02
       ELAPSED TOTAL CPU TIME (SEC) =  0.13000    
       ELAPSED WALLCLOCK TIME (SEC) =          0

               CONVERGENCE CHECKS FOR EQUILIBRIUM ITERATION     1


 AVERAGE FORCE                       26.0       TIME AVG. FORCE        17.6    
 ALL FORCE     RESIDUALS ARE ZERO
 LARGEST INCREMENT OF DISP.         5.198E-02   AT NODE        466   DOF  3
 LARGEST CORRECTION TO DISP.        1.612E-04   AT NODE        466   DOF  1
          THE FORCE     EQUILIBRIUM RESPONSE WAS LINEAR IN THIS INCREMENT

 AVERAGE MOMENT                      0.00       TIME AVG. MOMENT       18.4    
                                                (FROM FORCE     FIELD)
 ALL MOMENT    RESIDUALS ARE ZERO
 LARGEST INCREMENT OF ROTATION      3.400E-03   AT NODE        212   DOF  5
 LARGEST CORRECTION TO ROTATION    -5.638E-18   AT NODE        212   DOF  5
          THERE IS ZERO MOMENT    EVERYWHERE

 ITERATION SUMMARY FOR THE INCREMENT:   1 TOTAL ITERATIONS, OF WHICH
   0 ARE SEVERE DISCONTINUITY ITERATIONS AND  1 ARE EQUILIBRIUM ITERATIONS.

 TIME INCREMENT COMPLETED  5.000E-02,  FRACTION OF STEP COMPLETED  0.200    
 STEP TIME COMPLETED       0.200    ,  TOTAL TIME COMPLETED        0.200    


  INCREMENT     5 STARTS. ATTEMPT NUMBER  1, TIME INCREMENT  5.000E-02

  NUMBER OF EQUATIONS =      1116     NUMBER OF RHS =    1
  NUMBER OF FLOATING PT. OPERATIONS =  9.14E+06

  USING THE DIRECT SOLVER WITH  24 PROCESSORS

     CHECK POINT   START OF SOLVER    

     CHECK POINT  END OF SOLVER       

       ELAPSED USER TIME (SEC)      =  7.00000E-02
       ELAPSED SYSTEM TIME (SEC)    =  7.00000E-02
       ELAPSED TOTAL CPU TIME (SEC) =  0.14000    
       ELAPSED WALLCLOCK TIME (SEC) =          0

               CONVERGENCE CHECKS FOR EQUILIBRIUM ITERATION     1


 AVERAGE FORCE                       31.4       TIME AVG. FORCE        20.4    
 ALL FORCE     RESIDUALS ARE ZERO
 LARGEST INCREMENT OF DISP.         5.198E-02   AT NODE        466   DOF  3
 LARGEST CORRECTION TO DISP.        1.612E-04   AT NODE        466   DOF  1
          THE FORCE     EQUILIBRIUM RESPONSE WAS LINEAR IN THIS INCREMENT

 AVERAGE MOMENT                      0.00       TIME AVG. MOMENT       21.9    
                                                (FROM FORCE     FIELD)
 ALL MOMENT    RESIDUALS ARE ZERO
 LARGEST INCREMENT OF ROTATION      3.400E-03   AT NODE        212   DOF  5
 LARGEST CORRECTION TO ROTATION     1.301E-18   AT NODE        212   DOF  5
          THERE IS ZERO MOMENT    EVERYWHERE

 ITERATION SUMMARY FOR THE INCREMENT:   1 TOTAL ITERATIONS, OF WHICH
   0 ARE SEVERE DISCONTINUITY ITERATIONS AND  1 ARE EQUILIBRIUM ITERATIONS.

 TIME INCREMENT COMPLETED  5.000E-02,  FRACTION OF STEP COMPLETED  0.250    
 STEP TIME COMPLETED       0.250    ,  TOTAL TIME COMPLETED        0.250    


  INCREMENT     6 STARTS. ATTEMPT NUMBER  1, TIME INCREMENT  5.000E-02

  NUMBER OF EQUATIONS =      1116     NUMBER OF RHS =    1
  NUMBER OF FLOATING PT. OPERATIONS =  9.14E+06

  USING THE DIRECT SOLVER WITH  24 PROCESSORS

     CHECK POINT   START OF SOLVER    

     CHECK POINT  END OF SOLVER       

       ELAPSED USER TIME (SEC)      =  0.12000    
       ELAPSED SYSTEM TIME (SEC)    =  1.00000E-02
       ELAPSED TOTAL CPU TIME (SEC) =  0.13000    
       ELAPSED WALLCLOCK TIME (SEC) =          0

               CONVERGENCE CHECKS FOR EQUILIBRIUM ITERATION     1


 AVERAGE FORCE                       36.5       TIME AVG. FORCE        23.0    
 ALL FORCE     RESIDUALS ARE ZERO
 LARGEST INCREMENT OF DISP.         5.198E-02   AT NODE        466   DOF  3
 LARGEST CORRECTION TO DISP.        1.612E-04   AT NODE        466   DOF  1
          THE FORCE     EQUILIBRIUM RESPONSE WAS LINEAR IN THIS INCREMENT

 AVERAGE MOMENT                      0.00       TIME AVG. MOMENT       25.4    
                                                (FROM FORCE     FIELD)
 ALL MOMENT    RESIDUALS ARE ZERO
 LARGEST INCREMENT OF ROTATION      3.400E-03   AT NODE        212   DOF  5
 LARGEST CORRECTION TO ROTATION    -2.168E-18   AT NODE        212   DOF  5
          THERE IS ZERO MOMENT    EVERYWHERE

 ITERATION SUMMARY FOR THE INCREMENT:   1 TOTAL ITERATIONS, OF WHICH
   0 ARE SEVERE DISCONTINUITY ITERATIONS AND  1 ARE EQUILIBRIUM ITERATIONS.

 TIME INCREMENT COMPLETED  5.000E-02,  FRACTION OF STEP COMPLETED  0.300    
 STEP TIME COMPLETED       0.300    ,  TOTAL TIME COMPLETED        0.300    


  INCREMENT     7 STARTS. ATTEMPT NUMBER  1, TIME INCREMENT  5.000E-02

  NUMBER OF EQUATIONS =      1116     NUMBER OF RHS =    1
  NUMBER OF FLOATING PT. OPERATIONS =  9.14E+06

  USING THE DIRECT SOLVER WITH  24 PROCESSORS

     CHECK POINT   START OF SOLVER    

     CHECK POINT  END OF SOLVER       

       ELAPSED USER TIME (SEC)      =  0.16000    
       ELAPSED SYSTEM TIME (SEC)    =  2.00000E-02
       ELAPSED TOTAL CPU TIME (SEC) =  0.18000    
       ELAPSED WALLCLOCK TIME (SEC) =          0

               CONVERGENCE CHECKS FOR EQUILIBRIUM ITERATION     1


 AVERAGE FORCE                       41.6       TIME AVG. FORCE        25.7    
 ALL FORCE     RESIDUALS ARE ZERO
 LARGEST INCREMENT OF DISP.         5.197E-02   AT NODE        466   DOF  3
 LARGEST CORRECTION TO DISP.        1.612E-04   AT NODE        466   DOF  1
          THE FORCE     EQUILIBRIUM RESPONSE WAS LINEAR IN THIS INCREMENT

 AVERAGE MOMENT                      0.00       TIME AVG. MOMENT       28.7    
                                                (FROM FORCE     FIELD)
 ALL MOMENT    RESIDUALS ARE ZERO
 LARGEST INCREMENT OF ROTATION      3.400E-03   AT NODE        212   DOF  5
 LARGEST CORRECTION TO ROTATION     6.505E-18   AT NODE        212   DOF  5
          THERE IS ZERO MOMENT    EVERYWHERE

 ITERATION SUMMARY FOR THE INCREMENT:   1 TOTAL ITERATIONS, OF WHICH
   0 ARE SEVERE DISCONTINUITY ITERATIONS AND  1 ARE EQUILIBRIUM ITERATIONS.

 TIME INCREMENT COMPLETED  5.000E-02,  FRACTION OF STEP COMPLETED  0.350    
 STEP TIME COMPLETED       0.350    ,  TOTAL TIME COMPLETED        0.350    


  INCREMENT     8 STARTS. ATTEMPT NUMBER  1, TIME INCREMENT  5.000E-02

  NUMBER OF EQUATIONS =      1116     NUMBER OF RHS =    1
  NUMBER OF FLOATING PT. OPERATIONS =  9.14E+06

  USING THE DIRECT SOLVER WITH  24 PROCESSORS

     CHECK POINT   START OF SOLVER    

     CHECK POINT  END OF SOLVER       

       ELAPSED USER TIME (SEC)      =  0.11000    
       ELAPSED SYSTEM TIME (SEC)    =  4.00000E-02
       ELAPSED TOTAL CPU TIME (SEC) =  0.15000    
       ELAPSED WALLCLOCK TIME (SEC) =          0

               CONVERGENCE CHECKS FOR EQUILIBRIUM ITERATION     1


 AVERAGE FORCE                       46.8       TIME AVG. FORCE        28.3    
 ALL FORCE     RESIDUALS ARE ZERO
 LARGEST INCREMENT OF DISP.         5.197E-02   AT NODE        466   DOF  3
 LARGEST CORRECTION TO DISP.        1.612E-04   AT NODE        466   DOF  1
          THE FORCE     EQUILIBRIUM RESPONSE WAS LINEAR IN THIS INCREMENT

 AVERAGE MOMENT                      0.00       TIME AVG. MOMENT       32.0    
                                                (FROM FORCE     FIELD)
 ALL MOMENT    RESIDUALS ARE ZERO
 LARGEST INCREMENT OF ROTATION      3.400E-03   AT NODE        212   DOF  5
 LARGEST CORRECTION TO ROTATION    -7.373E-18   AT NODE        212   DOF  5
          THERE IS ZERO MOMENT    EVERYWHERE

 ITERATION SUMMARY FOR THE INCREMENT:   1 TOTAL ITERATIONS, OF WHICH
   0 ARE SEVERE DISCONTINUITY ITERATIONS AND  1 ARE EQUILIBRIUM ITERATIONS.

 TIME INCREMENT COMPLETED  5.000E-02,  FRACTION OF STEP COMPLETED  0.400    
 STEP TIME COMPLETED       0.400    ,  TOTAL TIME COMPLETED        0.400    


  INCREMENT     9 STARTS. ATTEMPT NUMBER  1, TIME INCREMENT  5.000E-02

  NUMBER OF EQUATIONS =      1116     NUMBER OF RHS =    1
  NUMBER OF FLOATING PT. OPERATIONS =  9.14E+06

  USING THE DIRECT SOLVER WITH  24 PROCESSORS

     CHECK POINT   START OF SOLVER    

     CHECK POINT  END OF SOLVER       

       ELAPSED USER TIME (SEC)      =  0.13000    
       ELAPSED SYSTEM TIME (SEC)    =  2.00000E-02
       ELAPSED TOTAL CPU TIME (SEC) =  0.15000    
       ELAPSED WALLCLOCK TIME (SEC) =          0

               CONVERGENCE CHECKS FOR EQUILIBRIUM ITERATION     1


 AVERAGE FORCE                       52.4       TIME AVG. FORCE        31.0    
 ALL FORCE     RESIDUALS ARE ZERO
 LARGEST INCREMENT OF DISP.         5.196E-02   AT NODE        466   DOF  3
 LARGEST CORRECTION TO DISP.        1.611E-04   AT NODE        466   DOF  1
          THE FORCE     EQUILIBRIUM RESPONSE WAS LINEAR IN THIS INCREMENT

 AVERAGE MOMENT                      0.00       TIME AVG. MOMENT       35.3    
                                                (FROM FORCE     FIELD)
 ALL MOMENT    RESIDUALS ARE ZERO
 LARGEST INCREMENT OF ROTATION      3.400E-03   AT NODE        212   DOF  5
 LARGEST CORRECTION TO ROTATION     3.036E-18   AT NODE        212   DOF  5
          THERE IS ZERO MOMENT    EVERYWHERE

 ITERATION SUMMARY FOR THE INCREMENT:   1 TOTAL ITERATIONS, OF WHICH
   0 ARE SEVERE DISCONTINUITY ITERATIONS AND  1 ARE EQUILIBRIUM ITERATIONS.

 TIME INCREMENT COMPLETED  5.000E-02,  FRACTION OF STEP COMPLETED  0.450    
 STEP TIME COMPLETED       0.450    ,  TOTAL TIME COMPLETED        0.450    


  INCREMENT    10 STARTS. ATTEMPT NUMBER  1, TIME INCREMENT  5.000E-02

  NUMBER OF EQUATIONS =      1116     NUMBER OF RHS =    1
  NUMBER OF FLOATING PT. OPERATIONS =  9.14E+06

  USING THE DIRECT SOLVER WITH  24 PROCESSORS

     CHECK POINT   START OF SOLVER    

     CHECK POINT  END OF SOLVER       

       ELAPSED USER TIME (SEC)      =  0.11000    
       ELAPSED SYSTEM TIME (SEC)    =  3.00000E-02
       ELAPSED TOTAL CPU TIME (SEC) =  0.14000    
       ELAPSED WALLCLOCK TIME (SEC) =          0

               CONVERGENCE CHECKS FOR EQUILIBRIUM ITERATION     1


 AVERAGE FORCE                       58.3       TIME AVG. FORCE        33.7    
 ALL FORCE     RESIDUALS ARE ZERO
 LARGEST INCREMENT OF DISP.         5.196E-02   AT NODE        466   DOF  3
 LARGEST CORRECTION TO DISP.        1.611E-04   AT NODE        466   DOF  1
          THE FORCE     EQUILIBRIUM RESPONSE WAS LINEAR IN THIS INCREMENT

 AVERAGE MOMENT                      0.00       TIME AVG. MOMENT       38.7    
                                                (FROM FORCE     FIELD)
 ALL MOMENT    RESIDUALS ARE ZERO
 LARGEST INCREMENT OF ROTATION      3.400E-03   AT NODE        212   DOF  5
 LARGEST CORRECTION TO ROTATION     9.758E-19   AT NODE        212   DOF  4
          THERE IS ZERO MOMENT    EVERYWHERE

 ITERATION SUMMARY FOR THE INCREMENT:   1 TOTAL ITERATIONS, OF WHICH
   0 ARE SEVERE DISCONTINUITY ITERATIONS AND  1 ARE EQUILIBRIUM ITERATIONS.

 TIME INCREMENT COMPLETED  5.000E-02,  FRACTION OF STEP COMPLETED  0.500    
 STEP TIME COMPLETED       0.500    ,  TOTAL TIME COMPLETED        0.500    


  INCREMENT    11 STARTS. ATTEMPT NUMBER  1, TIME INCREMENT  5.000E-02

  NUMBER OF EQUATIONS =      1116     NUMBER OF RHS =    1
  NUMBER OF FLOATING PT. OPERATIONS =  9.14E+06

  USING THE DIRECT SOLVER WITH  24 PROCESSORS

     CHECK POINT   START OF SOLVER    

     CHECK POINT  END OF SOLVER       

       ELAPSED USER TIME (SEC)      =  0.12000    
       ELAPSED SYSTEM TIME (SEC)    =  3.00000E-02
       ELAPSED TOTAL CPU TIME (SEC) =  0.15000    
       ELAPSED WALLCLOCK TIME (SEC) =          0

               CONVERGENCE CHECKS FOR EQUILIBRIUM ITERATION     1


 AVERAGE FORCE                       64.3       TIME AVG. FORCE        36.5    
 ALL FORCE     RESIDUALS ARE ZERO
 LARGEST INCREMENT OF DISP.         5.195E-02   AT NODE        466   DOF  3
 LARGEST CORRECTION TO DISP.        1.611E-04   AT NODE        466   DOF  1
          THE FORCE     EQUILIBRIUM RESPONSE WAS LINEAR IN THIS INCREMENT

 AVERAGE MOMENT                      0.00       TIME AVG. MOMENT       42.1    
                                                (FROM FORCE     FIELD)
 ALL MOMENT    RESIDUALS ARE ZERO
 LARGEST INCREMENT OF ROTATION      3.400E-03   AT NODE        212   DOF  5
 LARGEST CORRECTION TO ROTATION     6.505E-18   AT NODE        212   DOF  5
          THERE IS ZERO MOMENT    EVERYWHERE

 ITERATION SUMMARY FOR THE INCREMENT:   1 TOTAL ITERATIONS, OF WHICH
   0 ARE SEVERE DISCONTINUITY ITERATIONS AND  1 ARE EQUILIBRIUM ITERATIONS.

 TIME INCREMENT COMPLETED  5.000E-02,  FRACTION OF STEP COMPLETED  0.550    
 STEP TIME COMPLETED       0.550    ,  TOTAL TIME COMPLETED        0.550    


  INCREMENT    12 STARTS. ATTEMPT NUMBER  1, TIME INCREMENT  5.000E-02

  NUMBER OF EQUATIONS =      1116     NUMBER OF RHS =    1
  NUMBER OF FLOATING PT. OPERATIONS =  9.14E+06

  USING THE DIRECT SOLVER WITH  24 PROCESSORS

     CHECK POINT   START OF SOLVER    

     CHECK POINT  END OF SOLVER       

       ELAPSED USER TIME (SEC)      =  0.12000    
       ELAPSED SYSTEM TIME (SEC)    =  3.00000E-02
       ELAPSED TOTAL CPU TIME (SEC) =  0.15000    
       ELAPSED WALLCLOCK TIME (SEC) =          0

               CONVERGENCE CHECKS FOR EQUILIBRIUM ITERATION     1


 AVERAGE FORCE                       70.4       TIME AVG. FORCE        39.3    
 ALL FORCE     RESIDUALS ARE ZERO
 LARGEST INCREMENT OF DISP.         5.194E-02   AT NODE        466   DOF  3
 LARGEST CORRECTION TO DISP.        1.611E-04   AT NODE        466   DOF  1
          THE FORCE     EQUILIBRIUM RESPONSE WAS LINEAR IN THIS INCREMENT

 AVERAGE MOMENT                      0.00       TIME AVG. MOMENT       45.5    
                                                (FROM FORCE     FIELD)
 ALL MOMENT    RESIDUALS ARE ZERO
 LARGEST INCREMENT OF ROTATION      3.400E-03   AT NODE        212   DOF  5
 LARGEST CORRECTION TO ROTATION    -7.373E-18   AT NODE        212   DOF  5
          THERE IS ZERO MOMENT    EVERYWHERE

 ITERATION SUMMARY FOR THE INCREMENT:   1 TOTAL ITERATIONS, OF WHICH
   0 ARE SEVERE DISCONTINUITY ITERATIONS AND  1 ARE EQUILIBRIUM ITERATIONS.

 TIME INCREMENT COMPLETED  5.000E-02,  FRACTION OF STEP COMPLETED  0.600    
 STEP TIME COMPLETED       0.600    ,  TOTAL TIME COMPLETED        0.600    


  INCREMENT    13 STARTS. ATTEMPT NUMBER  1, TIME INCREMENT  5.000E-02

  NUMBER OF EQUATIONS =      1116     NUMBER OF RHS =    1
  NUMBER OF FLOATING PT. OPERATIONS =  9.14E+06

  USING THE DIRECT SOLVER WITH  24 PROCESSORS

     CHECK POINT   START OF SOLVER    

     CHECK POINT  END OF SOLVER       

       ELAPSED USER TIME (SEC)      =  0.12000    
       ELAPSED SYSTEM TIME (SEC)    =  2.00000E-02
       ELAPSED TOTAL CPU TIME (SEC) =  0.14000    
       ELAPSED WALLCLOCK TIME (SEC) =          0

               CONVERGENCE CHECKS FOR EQUILIBRIUM ITERATION     1


 AVERAGE FORCE                       76.7       TIME AVG. FORCE        42.2    
 ALL FORCE     RESIDUALS ARE ZERO
 LARGEST INCREMENT OF DISP.         5.194E-02   AT NODE        466   DOF  3
 LARGEST CORRECTION TO DISP.        1.610E-04   AT NODE        466   DOF  1
          THE FORCE     EQUILIBRIUM RESPONSE WAS LINEAR IN THIS INCREMENT

 AVERAGE MOMENT                      0.00       TIME AVG. MOMENT       49.0    
                                                (FROM FORCE     FIELD)
 ALL MOMENT    RESIDUALS ARE ZERO
 LARGEST INCREMENT OF ROTATION      3.400E-03   AT NODE        212   DOF  5
 LARGEST CORRECTION TO ROTATION    -7.589E-19   AT NODE        212   DOF  4
          THERE IS ZERO MOMENT    EVERYWHERE

 ITERATION SUMMARY FOR THE INCREMENT:   1 TOTAL ITERATIONS, OF WHICH
   0 ARE SEVERE DISCONTINUITY ITERATIONS AND  1 ARE EQUILIBRIUM ITERATIONS.

 TIME INCREMENT COMPLETED  5.000E-02,  FRACTION OF STEP COMPLETED  0.650    
 STEP TIME COMPLETED       0.650    ,  TOTAL TIME COMPLETED        0.650    


  INCREMENT    14 STARTS. ATTEMPT NUMBER  1, TIME INCREMENT  5.000E-02

  NUMBER OF EQUATIONS =      1116     NUMBER OF RHS =    1
  NUMBER OF FLOATING PT. OPERATIONS =  9.14E+06

  USING THE DIRECT SOLVER WITH  24 PROCESSORS

     CHECK POINT   START OF SOLVER    

     CHECK POINT  END OF SOLVER       

       ELAPSED USER TIME (SEC)      =  0.11000    
       ELAPSED SYSTEM TIME (SEC)    =  4.00000E-02
       ELAPSED TOTAL CPU TIME (SEC) =  0.15000    
       ELAPSED WALLCLOCK TIME (SEC) =          0

               CONVERGENCE CHECKS FOR EQUILIBRIUM ITERATION     1


 AVERAGE FORCE                       83.2       TIME AVG. FORCE        45.1    
 ALL FORCE     RESIDUALS ARE ZERO
 LARGEST INCREMENT OF DISP.         5.193E-02   AT NODE        466   DOF  3
 LARGEST CORRECTION TO DISP.        1.610E-04   AT NODE        466   DOF  1
          THE FORCE     EQUILIBRIUM RESPONSE WAS LINEAR IN THIS INCREMENT

 AVERAGE MOMENT                      0.00       TIME AVG. MOMENT       52.6    
                                                (FROM FORCE     FIELD)
 ALL MOMENT    RESIDUALS ARE ZERO
 LARGEST INCREMENT OF ROTATION      3.400E-03   AT NODE        212   DOF  5
 LARGEST CORRECTION TO ROTATION     8.674E-19   AT NODE        212   DOF  4
          THERE IS ZERO MOMENT    EVERYWHERE

 ITERATION SUMMARY FOR THE INCREMENT:   1 TOTAL ITERATIONS, OF WHICH
   0 ARE SEVERE DISCONTINUITY ITERATIONS AND  1 ARE EQUILIBRIUM ITERATIONS.

 TIME INCREMENT COMPLETED  5.000E-02,  FRACTION OF STEP COMPLETED  0.700    
 STEP TIME COMPLETED       0.700    ,  TOTAL TIME COMPLETED        0.700    


  INCREMENT    15 STARTS. ATTEMPT NUMBER  1, TIME INCREMENT  5.000E-02

  NUMBER OF EQUATIONS =      1116     NUMBER OF RHS =    1
  NUMBER OF FLOATING PT. OPERATIONS =  9.14E+06

  USING THE DIRECT SOLVER WITH  24 PROCESSORS

     CHECK POINT   START OF SOLVER    

     CHECK POINT  END OF SOLVER       

       ELAPSED USER TIME (SEC)      =  0.10000    
       ELAPSED SYSTEM TIME (SEC)    =  5.00000E-02
       ELAPSED TOTAL CPU TIME (SEC) =  0.15000    
       ELAPSED WALLCLOCK TIME (SEC) =          0

               CONVERGENCE CHECKS FOR EQUILIBRIUM ITERATION     1


 AVERAGE FORCE                       89.7       TIME AVG. FORCE        48.1    
 ALL FORCE     RESIDUALS ARE ZERO
 LARGEST INCREMENT OF DISP.         5.192E-02   AT NODE        466   DOF  3
 LARGEST CORRECTION TO DISP.        1.610E-04   AT NODE        466   DOF  1
          THE FORCE     EQUILIBRIUM RESPONSE WAS LINEAR IN THIS INCREMENT

 AVERAGE MOMENT                      0.00       TIME AVG. MOMENT       56.3    
                                                (FROM FORCE     FIELD)
 ALL MOMENT    RESIDUALS ARE ZERO
 LARGEST INCREMENT OF ROTATION      3.400E-03   AT NODE        212   DOF  5
 LARGEST CORRECTION TO ROTATION     8.674E-19   AT NODE        212   DOF  4
          THERE IS ZERO MOMENT    EVERYWHERE

 ITERATION SUMMARY FOR THE INCREMENT:   1 TOTAL ITERATIONS, OF WHICH
   0 ARE SEVERE DISCONTINUITY ITERATIONS AND  1 ARE EQUILIBRIUM ITERATIONS.

 TIME INCREMENT COMPLETED  5.000E-02,  FRACTION OF STEP COMPLETED  0.750    
 STEP TIME COMPLETED       0.750    ,  TOTAL TIME COMPLETED        0.750    


  INCREMENT    16 STARTS. ATTEMPT NUMBER  1, TIME INCREMENT  5.000E-02

  NUMBER OF EQUATIONS =      1116     NUMBER OF RHS =    1
  NUMBER OF FLOATING PT. OPERATIONS =  9.14E+06

  USING THE DIRECT SOLVER WITH  24 PROCESSORS

     CHECK POINT   START OF SOLVER    

     CHECK POINT  END OF SOLVER       

       ELAPSED USER TIME (SEC)      =  0.10000    
       ELAPSED SYSTEM TIME (SEC)    =  4.00000E-02
       ELAPSED TOTAL CPU TIME (SEC) =  0.14000    
       ELAPSED WALLCLOCK TIME (SEC) =          0

               CONVERGENCE CHECKS FOR EQUILIBRIUM ITERATION     1


 AVERAGE FORCE                       96.6       TIME AVG. FORCE        51.1    
 ALL FORCE     RESIDUALS ARE ZERO
 LARGEST INCREMENT OF DISP.         5.191E-02   AT NODE        466   DOF  3
 LARGEST CORRECTION TO DISP.        1.609E-04   AT NODE        466   DOF  1
          THE FORCE     EQUILIBRIUM RESPONSE WAS LINEAR IN THIS INCREMENT

 AVERAGE MOMENT                      0.00       TIME AVG. MOMENT       60.0    
                                                (FROM FORCE     FIELD)
 ALL MOMENT    RESIDUALS ARE ZERO
 LARGEST INCREMENT OF ROTATION      3.400E-03   AT NODE        212   DOF  5
 LARGEST CORRECTION TO ROTATION    -2.054E-30   AT NODE        212   DOF  5
          THERE IS ZERO MOMENT    EVERYWHERE

 ITERATION SUMMARY FOR THE INCREMENT:   1 TOTAL ITERATIONS, OF WHICH
   0 ARE SEVERE DISCONTINUITY ITERATIONS AND  1 ARE EQUILIBRIUM ITERATIONS.

 TIME INCREMENT COMPLETED  5.000E-02,  FRACTION OF STEP COMPLETED  0.800    
 STEP TIME COMPLETED       0.800    ,  TOTAL TIME COMPLETED        0.800    


  INCREMENT    17 STARTS. ATTEMPT NUMBER  1, TIME INCREMENT  5.000E-02

  NUMBER OF EQUATIONS =      1116     NUMBER OF RHS =    1
  NUMBER OF FLOATING PT. OPERATIONS =  9.14E+06

  USING THE DIRECT SOLVER WITH  24 PROCESSORS

     CHECK POINT   START OF SOLVER    

     CHECK POINT  END OF SOLVER       

       ELAPSED USER TIME (SEC)      =  0.10000    
       ELAPSED SYSTEM TIME (SEC)    =  3.00000E-02
       ELAPSED TOTAL CPU TIME (SEC) =  0.13000    
       ELAPSED WALLCLOCK TIME (SEC) =          0

               CONVERGENCE CHECKS FOR EQUILIBRIUM ITERATION     1


 AVERAGE FORCE                       104.       TIME AVG. FORCE        54.2    
 ALL FORCE     RESIDUALS ARE ZERO
 LARGEST INCREMENT OF DISP.         5.190E-02   AT NODE        466   DOF  3
 LARGEST CORRECTION TO DISP.        1.609E-04   AT NODE        466   DOF  1
          THE FORCE     EQUILIBRIUM RESPONSE WAS LINEAR IN THIS INCREMENT

 AVERAGE MOMENT                      0.00       TIME AVG. MOMENT       63.8    
                                                (FROM FORCE     FIELD)
 ALL MOMENT    RESIDUALS ARE ZERO
 LARGEST INCREMENT OF ROTATION      3.400E-03   AT NODE        212   DOF  5
 LARGEST CORRECTION TO ROTATION     6.939E-18   AT NODE        212   DOF  5
          THERE IS ZERO MOMENT    EVERYWHERE

 ITERATION SUMMARY FOR THE INCREMENT:   1 TOTAL ITERATIONS, OF WHICH
   0 ARE SEVERE DISCONTINUITY ITERATIONS AND  1 ARE EQUILIBRIUM ITERATIONS.

 TIME INCREMENT COMPLETED  5.000E-02,  FRACTION OF STEP COMPLETED  0.850    
 STEP TIME COMPLETED       0.850    ,  TOTAL TIME COMPLETED        0.850    


  INCREMENT    18 STARTS. ATTEMPT NUMBER  1, TIME INCREMENT  5.000E-02

  NUMBER OF EQUATIONS =      1116     NUMBER OF RHS =    1
  NUMBER OF FLOATING PT. OPERATIONS =  9.14E+06

  USING THE DIRECT SOLVER WITH  24 PROCESSORS

     CHECK POINT   START OF SOLVER    

     CHECK POINT  END OF SOLVER       

       ELAPSED USER TIME (SEC)      =  0.10000    
       ELAPSED SYSTEM TIME (SEC)    =  4.00000E-02
       ELAPSED TOTAL CPU TIME (SEC) =  0.14000    
       ELAPSED WALLCLOCK TIME (SEC) =          0

               CONVERGENCE CHECKS FOR EQUILIBRIUM ITERATION     1


 AVERAGE FORCE                       112.       TIME AVG. FORCE        57.4    
 ALL FORCE     RESIDUALS ARE ZERO
 LARGEST INCREMENT OF DISP.         5.189E-02   AT NODE        466   DOF  3
 LARGEST CORRECTION TO DISP.        1.609E-04   AT NODE        466   DOF  1
          THE FORCE     EQUILIBRIUM RESPONSE WAS LINEAR IN THIS INCREMENT

 AVERAGE MOMENT                      0.00       TIME AVG. MOMENT       67.6    
                                                (FROM FORCE     FIELD)
 ALL MOMENT    RESIDUALS ARE ZERO
 LARGEST INCREMENT OF ROTATION      3.400E-03   AT NODE        212   DOF  5
 LARGEST CORRECTION TO ROTATION    -1.626E-18   AT NODE        212   DOF  4
          THERE IS ZERO MOMENT    EVERYWHERE

 ITERATION SUMMARY FOR THE INCREMENT:   1 TOTAL ITERATIONS, OF WHICH
   0 ARE SEVERE DISCONTINUITY ITERATIONS AND  1 ARE EQUILIBRIUM ITERATIONS.

 TIME INCREMENT COMPLETED  5.000E-02,  FRACTION OF STEP COMPLETED  0.900    
 STEP TIME COMPLETED       0.900    ,  TOTAL TIME COMPLETED        0.900    


  INCREMENT    19 STARTS. ATTEMPT NUMBER  1, TIME INCREMENT  5.000E-02

  NUMBER OF EQUATIONS =      1116     NUMBER OF RHS =    1
  NUMBER OF FLOATING PT. OPERATIONS =  9.14E+06

  USING THE DIRECT SOLVER WITH  24 PROCESSORS

     CHECK POINT   START OF SOLVER    

     CHECK POINT  END OF SOLVER       

       ELAPSED USER TIME (SEC)      =  0.13000    
       ELAPSED SYSTEM TIME (SEC)    =  1.00000E-02
       ELAPSED TOTAL CPU TIME (SEC) =  0.14000    
       ELAPSED WALLCLOCK TIME (SEC) =          1

               CONVERGENCE CHECKS FOR EQUILIBRIUM ITERATION     1


 AVERAGE FORCE                       121.       TIME AVG. FORCE        60.8    
 ALL FORCE     RESIDUALS ARE ZERO
 LARGEST INCREMENT OF DISP.         5.188E-02   AT NODE        466   DOF  3
 LARGEST CORRECTION TO DISP.        1.608E-04   AT NODE        466   DOF  1
          THE FORCE     EQUILIBRIUM RESPONSE WAS LINEAR IN THIS INCREMENT

 AVERAGE MOMENT                      0.00       TIME AVG. MOMENT       71.6    
                                                (FROM FORCE     FIELD)
 ALL MOMENT    RESIDUALS ARE ZERO
 LARGEST INCREMENT OF ROTATION      3.400E-03   AT NODE        212   DOF  5
 LARGEST CORRECTION TO ROTATION     6.505E-18   AT NODE        212   DOF  5
          THERE IS ZERO MOMENT    EVERYWHERE

 ITERATION SUMMARY FOR THE INCREMENT:   1 TOTAL ITERATIONS, OF WHICH
   0 ARE SEVERE DISCONTINUITY ITERATIONS AND  1 ARE EQUILIBRIUM ITERATIONS.

 TIME INCREMENT COMPLETED  5.000E-02,  FRACTION OF STEP COMPLETED  0.950    
 STEP TIME COMPLETED       0.950    ,  TOTAL TIME COMPLETED        0.950    


  INCREMENT    20 STARTS. ATTEMPT NUMBER  1, TIME INCREMENT  5.000E-02

  NUMBER OF EQUATIONS =      1116     NUMBER OF RHS =    1
  NUMBER OF FLOATING PT. OPERATIONS =  9.14E+06

  USING THE DIRECT SOLVER WITH  24 PROCESSORS

     CHECK POINT   START OF SOLVER    

     CHECK POINT  END OF SOLVER       

       ELAPSED USER TIME (SEC)      =  0.13000    
       ELAPSED SYSTEM TIME (SEC)    =  2.00000E-02
       ELAPSED TOTAL CPU TIME (SEC) =  0.15000    
       ELAPSED WALLCLOCK TIME (SEC) =          0

               CONVERGENCE CHECKS FOR EQUILIBRIUM ITERATION     1


 AVERAGE FORCE                       131.       TIME AVG. FORCE        64.3    
 ALL FORCE     RESIDUALS ARE ZERO
 LARGEST INCREMENT OF DISP.         5.187E-02   AT NODE        466   DOF  3
 LARGEST CORRECTION TO DISP.        1.608E-04   AT NODE        466   DOF  1
          THE FORCE     EQUILIBRIUM RESPONSE WAS LINEAR IN THIS INCREMENT

 AVERAGE MOMENT                      0.00       TIME AVG. MOMENT       75.8    
                                                (FROM FORCE     FIELD)
 ALL MOMENT    RESIDUALS ARE ZERO
 LARGEST INCREMENT OF ROTATION      3.400E-03   AT NODE        212   DOF  5
 LARGEST CORRECTION TO ROTATION    -8.674E-18   AT NODE        212   DOF  5
          THERE IS ZERO MOMENT    EVERYWHERE

 ITERATION SUMMARY FOR THE INCREMENT:   1 TOTAL ITERATIONS, OF WHICH
   0 ARE SEVERE DISCONTINUITY ITERATIONS AND  1 ARE EQUILIBRIUM ITERATIONS.

 TIME INCREMENT COMPLETED  5.000E-02,  FRACTION OF STEP COMPLETED   1.00    
 STEP TIME COMPLETED        1.00    ,  TOTAL TIME COMPLETED         1.00    
1

   Abaqus 2021.HF4                                  Date 24-Feb-2023   Time 15:42:47
   For use by UNIVERSITAET BERN under license from Dassault Systemes or its subsidiary.

                                                                                 
                                                                                 
 STEP    2     INCREMENT     1     STEP TIME    0.00    


                        S T E P       2     S T A T I C   A N A L Y S I S


                                                                                          

     AUTOMATIC TIME CONTROL WITH -
          A SUGGESTED INITIAL TIME INCREMENT OF                5.000E-02
          AND A TOTAL TIME PERIOD OF                            1.00    
          THE MINIMUM TIME INCREMENT ALLOWED IS                5.000E-05
          THE MAXIMUM TIME INCREMENT ALLOWED IS                5.000E-02

     LINEAR EQUATION SOLVER TYPE         DIRECT SPARSE

 CONVERGENCE TOLERANCE PARAMETERS FOR FORCE    
     CRITERION FOR RESIDUAL FORCE     FOR A NONLINEAR PROBLEM          5.000E-03
     CRITERION FOR DISP.    CORRECTION IN A NONLINEAR PROBLEM          1.000E-02
     INIT. VALUE OF TIME AVG. FORCE     IS TIME AVG. FORCE     IN PREVIOUS STEP
     AVERAGE FORCE     IS TIME AVERAGE FORCE    
     ALTERNATE CRIT. FOR RESIDUAL FORCE     FOR A NONLINEAR PROBLEM    2.000E-02
     CRITERION FOR ZERO FORCE     RELATIVE TO TIME AVRG. FORCE         1.000E-05
     CRITERION FOR RESIDUAL FORCE     WHEN THERE IS ZERO FLUX          1.000E-05
     CRITERION FOR DISP.    CORRECTION WHEN THERE IS ZERO FLUX         1.000E-03
     CRITERION FOR RESIDUAL FORCE     FOR A LINEAR INCREMENT           1.000E-08
     FIELD CONVERSION RATIO                                             1.00    
     CRITERION FOR ZERO FORCE     REL. TO TIME AVRG. MAX. FORCE        1.000E-05
     CRITERION FOR ZERO DISP.    RELATIVE TO CHARACTERISTIC LENGTH     1.000E-08

 CONVERGENCE TOLERANCE PARAMETERS FOR MOMENT   
     CRITERION FOR RESIDUAL MOMENT    FOR A NONLINEAR PROBLEM          5.000E-03
     CRITERION FOR ROTATION CORRECTION IN A NONLINEAR PROBLEM          1.000E-02
     INIT. VALUE OF TIME AVG. MOMENT    IS TIME AVG. MOMENT    IN PREVIOUS STEP
     AVERAGE MOMENT    IS TIME AVERAGE MOMENT   
     ALTERNATE CRIT. FOR RESIDUAL MOMENT    FOR A NONLINEAR PROBLEM    2.000E-02
     CRITERION FOR ZERO MOMENT    RELATIVE TO TIME AVRG. MOMENT        1.000E-05
     CRITERION FOR RESIDUAL MOMENT    WHEN THERE IS ZERO FLUX          1.000E-05
     CRITERION FOR ROTATION CORRECTION WHEN THERE IS ZERO FLUX         1.000E-03
     CRITERION FOR RESIDUAL MOMENT    FOR A LINEAR INCREMENT           1.000E-08
     FIELD CONVERSION RATIO                                             1.00    
     CRITERION FOR ZERO MOMENT    REL. TO TIME AVRG. MAX. MOMENT       1.000E-05

     VOLUMETRIC STRAIN COMPATIBILITY TOLERANCE FOR HYBRID SOLIDS       1.000E-05
     AXIAL STRAIN COMPATIBILITY TOLERANCE FOR HYBRID BEAMS             1.000E-05
     TRANS. SHEAR STRAIN COMPATIBILITY TOLERANCE FOR HYBRID BEAMS      1.000E-05
     SOFT CONTACT CONSTRAINT COMPATIBILITY TOLERANCE FOR P>P0          5.000E-03
     SOFT CONTACT CONSTRAINT COMPATIBILITY TOLERANCE FOR P=0.0         0.100    
     CONTACT FORCE ERROR TOLERANCE FOR CONVERT SDI=YES                 1.00    
     DISPLACEMENT COMPATIBILITY TOLERANCE FOR DCOUP ELEMENTS           1.000E-05
     ROTATION COMPATIBILITY TOLERANCE FOR DCOUP ELEMENTS               1.000E-05

 EQUILIBRIUM WILL BE CHECKED FOR SEVERE DISCONTINUITY ITERATIONS

 TIME INCREMENTATION CONTROL PARAMETERS:
     FIRST EQUILIBRIUM ITERATION FOR CONSECUTIVE DIVERGENCE CHECK              4
     EQUILIBRIUM ITERATION AT WHICH LOG. CONVERGENCE RATE CHECK BEGINS         8
     EQUILIBRIUM ITERATION AFTER WHICH ALTERNATE RESIDUAL IS USED              9
     MAXIMUM EQUILIBRIUM ITERATIONS ALLOWED                                   16
     EQUILIBRIUM ITERATION COUNT FOR CUT-BACK IN NEXT INCREMENT               10
     MAXIMUM EQUILIB. ITERS IN TWO INCREMENTS FOR TIME INCREMENT INCREASE      4
     MAXIMUM ITERATIONS FOR SEVERE DISCONTINUITIES                            50
     MAXIMUM ATTEMPTS ALLOWED IN AN INCREMENT                                  5
     MAXIMUM DISCON. ITERS IN TWO INCREMENTS FOR TIME INCREMENT INCREASE      50
     MAXIMUM CONTACT AUGMENTATIONS FOR *SURFACE BEHAVIOR,AUGMENTED LAGRANGE   50
     CUT-BACK FACTOR AFTER DIVERGENCE                                 0.2500    
     CUT-BACK FACTOR FOR TOO SLOW CONVERGENCE                         0.5000    
     CUT-BACK FACTOR AFTER TOO MANY EQUILIBRIUM ITERATIONS            0.7500    
     CUT-BACK FACTOR AFTER TOO MANY SEVERE DISCONTINUITY ITERATIONS   0.2500    
     CUT-BACK FACTOR AFTER PROBLEMS IN ELEMENT ASSEMBLY               0.2500    
     INCREASE FACTOR AFTER TWO INCREMENTS THAT CONVERGE QUICKLY        1.500    
     MAX. TIME INCREMENT INCREASE FACTOR ALLOWED                       1.500    
     MAX. TIME INCREMENT INCREASE FACTOR ALLOWED (DYNAMICS)            1.250    
     MAX. TIME INCREMENT INCREASE FACTOR ALLOWED (DIFFUSION)           2.000    
     MINIMUM TIME INCREMENT RATIO FOR EXTRAPOLATION TO OCCUR          0.1000    
     MAX. RATIO OF TIME INCREMENT TO STABILITY LIMIT                   1.000    
     FRACTION OF STABILITY LIMIT FOR NEW TIME INCREMENT               0.9500    
     TIME INCREMENT INCREASE FACTOR BEFORE A TIME POINT                1.000    
     GLOBAL STABILIZATION CONTROL IS NOT USED

          PRINT OF INCREMENT NUMBER, TIME, ETC., EVERY    1  INCREMENTS

     THE MAXIMUM NUMBER OF INCREMENTS IN THIS STEP IS                    1000

          LARGE DISPLACEMENT THEORY WILL BE USED

          UNSYMMETRIC MATRIX STORAGE AND SOLUTION WILL BE USED

     LINEAR EXTRAPOLATION WILL BE USED

     CHARACTERISTIC ELEMENT LENGTH      1.25    

     DETAILS REGARDING ACTUAL SOLUTION WAVEFRONT REQUESTED

     DETAILED OUTPUT OF DIAGNOSTICS TO DATABASE REQUESTED

     PRINT OF INCREMENT NUMBER, TIME, ETC., TO THE MESSAGE FILE EVERY     1  INCREMENTS

     ELEMENT OPERATIONS WILL BE CARRIED OUT IN PARALLEL USING  24 PROCESSORS

     COLLECTING STEP CONSTRAINT INFORMATION FOR OVERCONSTRAINT CHECKS


  INCREMENT     1 STARTS. ATTEMPT NUMBER  1, TIME INCREMENT  5.000E-02
 
     INITIAL ELEMENT LOAD BALANCE
            PROCESS    1   THREAD     NUMBER OF ELEMENTS
                              1            13
                              2            13
                              3            15
                              4            13
                              5            26
                              6            13
                              7            13
                              8            13
                              9            13
                             10            13
                             11            13
                             12            13
                             13            13
                             14            13
                             15            13
                             16            13
                             17            13
                             18            13
                             19            13
                             20            13
                             21            13
                             22            13
                             23            13
                             24            13

  NUMBER OF EQUATIONS =      1116     NUMBER OF RHS =    1
  NUMBER OF FLOATING PT. OPERATIONS =  9.14E+06

  USING THE DIRECT SOLVER WITH  24 PROCESSORS

     CHECK POINT   START OF SOLVER    

     CHECK POINT  END OF SOLVER       

       ELAPSED USER TIME (SEC)      =  0.14000    
       ELAPSED SYSTEM TIME (SEC)    =  2.00000E-02
       ELAPSED TOTAL CPU TIME (SEC) =  0.16000    
       ELAPSED WALLCLOCK TIME (SEC) =          0
   ELEMENT 492 IS DISTORTING EXCESSIVELY.
   ELEMENT 492 IS DISTORTING EXCESSIVELY.
   ELEMENT 492 IS DISTORTING EXCESSIVELY.
   ELEMENT 492 IS DISTORTING EXCESSIVELY.
   ELEMENT 492 IS DISTORTING EXCESSIVELY.
   ELEMENT 492 IS DISTORTING EXCESSIVELY.
   ELEMENT 492 IS DISTORTING EXCESSIVELY.
   ELEMENT 492 IS DISTORTING EXCESSIVELY.
   ELEMENT 493 IS DISTORTING EXCESSIVELY.
   ELEMENT 493 IS DISTORTING EXCESSIVELY.
   ELEMENT 493 IS DISTORTING EXCESSIVELY.
   ELEMENT 493 IS DISTORTING EXCESSIVELY.
   ELEMENT 493 IS DISTORTING EXCESSIVELY.
   ELEMENT 493 IS DISTORTING EXCESSIVELY.
   ELEMENT 493 IS DISTORTING EXCESSIVELY.
   ELEMENT 493 IS DISTORTING EXCESSIVELY.
   ELEMENT 494 IS DISTORTING EXCESSIVELY.
   ELEMENT 494 IS DISTORTING EXCESSIVELY.
   ELEMENT 494 IS DISTORTING EXCESSIVELY.
   ELEMENT 494 IS DISTORTING EXCESSIVELY.
   ELEMENT 494 IS DISTORTING EXCESSIVELY.
   ELEMENT 494 IS DISTORTING EXCESSIVELY.
   ELEMENT 494 IS DISTORTING EXCESSIVELY.
   ELEMENT 494 IS DISTORTING EXCESSIVELY.
   ELEMENT 495 IS DISTORTING EXCESSIVELY.
   ELEMENT 495 IS DISTORTING EXCESSIVELY.
   ELEMENT 491 IS DISTORTING EXCESSIVELY.
   ELEMENT 491 IS DISTORTING EXCESSIVELY.
   ELEMENT 491 IS DISTORTING EXCESSIVELY.
   ELEMENT 491 IS DISTORTING EXCESSIVELY.
   ELEMENT 491 IS DISTORTING EXCESSIVELY.
   ELEMENT 491 IS DISTORTING EXCESSIVELY.
   ELEMENT 491 IS DISTORTING EXCESSIVELY.
   ELEMENT 491 IS DISTORTING EXCESSIVELY.
   ELEMENT 345 IS DISTORTING EXCESSIVELY.
   ELEMENT 345 IS DISTORTING EXCESSIVELY.
   ELEMENT 345 IS DISTORTING EXCESSIVELY.
   ELEMENT 345 IS DISTORTING EXCESSIVELY.
   ELEMENT 345 IS DISTORTING EXCESSIVELY.
   ELEMENT 345 IS DISTORTING EXCESSIVELY.
   ELEMENT 345 IS DISTORTING EXCESSIVELY.
   ELEMENT 345 IS DISTORTING EXCESSIVELY.
   ELEMENT 346 IS DISTORTING EXCESSIVELY.
   ELEMENT 346 IS DISTORTING EXCESSIVELY.
   ELEMENT 346 IS DISTORTING EXCESSIVELY.
   ELEMENT 346 IS DISTORTING EXCESSIVELY.
   ELEMENT 346 IS DISTORTING EXCESSIVELY.
   ELEMENT 346 IS DISTORTING EXCESSIVELY.
   ELEMENT 346 IS DISTORTING EXCESSIVELY.
   ELEMENT 346 IS DISTORTING EXCESSIVELY.
   ELEMENT 347 IS DISTORTING EXCESSIVELY.
   ELEMENT 347 IS DISTORTING EXCESSIVELY.
   ELEMENT 347 IS DISTORTING EXCESSIVELY.
   ELEMENT 347 IS DISTORTING EXCESSIVELY.
   ELEMENT 347 IS DISTORTING EXCESSIVELY.
   ELEMENT 347 IS DISTORTING EXCESSIVELY.
   ELEMENT 347 IS DISTORTING EXCESSIVELY.
   ELEMENT 347 IS DISTORTING EXCESSIVELY.
   ELEMENT 348 IS DISTORTING EXCESSIVELY.
   ELEMENT 348 IS DISTORTING EXCESSIVELY.
   ELEMENT 348 IS DISTORTING EXCESSIVELY.
   ELEMENT 348 IS DISTORTING EXCESSIVELY.
   ELEMENT 715 IS DISTORTING EXCESSIVELY.
   ELEMENT 715 IS DISTORTING EXCESSIVELY.
   ELEMENT 421 IS DISTORTING EXCESSIVELY.
   ELEMENT 421 IS DISTORTING EXCESSIVELY.
   ELEMENT 421 IS DISTORTING EXCESSIVELY.
   ELEMENT 421 IS DISTORTING EXCESSIVELY.
   ELEMENT 421 IS DISTORTING EXCESSIVELY.
   ELEMENT 421 IS DISTORTING EXCESSIVELY.
   ELEMENT 565 IS DISTORTING EXCESSIVELY.
   ELEMENT 565 IS DISTORTING EXCESSIVELY.
   ELEMENT 565 IS DISTORTING EXCESSIVELY.
   ELEMENT 565 IS DISTORTING EXCESSIVELY.
   ELEMENT 565 IS DISTORTING EXCESSIVELY.
   ELEMENT 565 IS DISTORTING EXCESSIVELY.
   ELEMENT 565 IS DISTORTING EXCESSIVELY.
   ELEMENT 565 IS DISTORTING EXCESSIVELY.
   ELEMENT 566 IS DISTORTING EXCESSIVELY.
   ELEMENT 566 IS DISTORTING EXCESSIVELY.
   ELEMENT 566 IS DISTORTING EXCESSIVELY.
   ELEMENT 566 IS DISTORTING EXCESSIVELY.
   ELEMENT 566 IS DISTORTING EXCESSIVELY.
   ELEMENT 566 IS DISTORTING EXCESSIVELY.
   ELEMENT 566 IS DISTORTING EXCESSIVELY.
   ELEMENT 566 IS DISTORTING EXCESSIVELY.
   ELEMENT 567 IS DISTORTING EXCESSIVELY.
   ELEMENT 567 IS DISTORTING EXCESSIVELY.
   ELEMENT 567 IS DISTORTING EXCESSIVELY.
   ELEMENT 567 IS DISTORTING EXCESSIVELY.
   ELEMENT 567 IS DISTORTING EXCESSIVELY.
   ELEMENT 567 IS DISTORTING EXCESSIVELY.
   ELEMENT 567 IS DISTORTING EXCESSIVELY.
   ELEMENT 567 IS DISTORTING EXCESSIVELY.
   ELEMENT 568 IS DISTORTING EXCESSIVELY.
   ELEMENT 568 IS DISTORTING EXCESSIVELY.
   ELEMENT 568 IS DISTORTING EXCESSIVELY.
   ELEMENT 568 IS DISTORTING EXCESSIVELY.
   ELEMENT 640 IS DISTORTING EXCESSIVELY.
   ELEMENT 640 IS DISTORTING EXCESSIVELY.
   ELEMENT 640 IS DISTORTING EXCESSIVELY.
   ELEMENT 640 IS DISTORTING EXCESSIVELY.
   ELEMENT 640 IS DISTORTING EXCESSIVELY.
   ELEMENT 640 IS DISTORTING EXCESSIVELY.
   ELEMENT 640 IS DISTORTING EXCESSIVELY.
   ELEMENT 640 IS DISTORTING EXCESSIVELY.
   ELEMENT 641 IS DISTORTING EXCESSIVELY.
   ELEMENT 641 IS DISTORTING EXCESSIVELY.
   ELEMENT 641 IS DISTORTING EXCESSIVELY.
   ELEMENT 641 IS DISTORTING EXCESSIVELY.
   ELEMENT 641 IS DISTORTING EXCESSIVELY.
   ELEMENT 641 IS DISTORTING EXCESSIVELY.
   ELEMENT 641 IS DISTORTING EXCESSIVELY.
   ELEMENT 641 IS DISTORTING EXCESSIVELY.
   ELEMENT 677 IS DISTORTING EXCESSIVELY.
   ELEMENT 677 IS DISTORTING EXCESSIVELY.
   ELEMENT 677 IS DISTORTING EXCESSIVELY.
   ELEMENT 677 IS DISTORTING EXCESSIVELY.
   ELEMENT 677 IS DISTORTING EXCESSIVELY.
   ELEMENT 677 IS DISTORTING EXCESSIVELY.
   ELEMENT 677 IS DISTORTING EXCESSIVELY.
   ELEMENT 677 IS DISTORTING EXCESSIVELY.
   ELEMENT 678 IS DISTORTING EXCESSIVELY.
   ELEMENT 678 IS DISTORTING EXCESSIVELY.
   ELEMENT 678 IS DISTORTING EXCESSIVELY.
   ELEMENT 678 IS DISTORTING EXCESSIVELY.
   ELEMENT 454 IS DISTORTING EXCESSIVELY.
   ELEMENT 454 IS DISTORTING EXCESSIVELY.
   ELEMENT 454 IS DISTORTING EXCESSIVELY.
   ELEMENT 454 IS DISTORTING EXCESSIVELY.
   ELEMENT 454 IS DISTORTING EXCESSIVELY.
   ELEMENT 454 IS DISTORTING EXCESSIVELY.
   ELEMENT 454 IS DISTORTING EXCESSIVELY.
   ELEMENT 454 IS DISTORTING EXCESSIVELY.
   ELEMENT 455 IS DISTORTING EXCESSIVELY.
   ELEMENT 455 IS DISTORTING EXCESSIVELY.
   ELEMENT 455 IS DISTORTING EXCESSIVELY.
   ELEMENT 455 IS DISTORTING EXCESSIVELY.
   ELEMENT 455 IS DISTORTING EXCESSIVELY.
   ELEMENT 455 IS DISTORTING EXCESSIVELY.
   ELEMENT 455 IS DISTORTING EXCESSIVELY.
   ELEMENT 455 IS DISTORTING EXCESSIVELY.
   ELEMENT 456 IS DISTORTING EXCESSIVELY.
   ELEMENT 456 IS DISTORTING EXCESSIVELY.
   ELEMENT 456 IS DISTORTING EXCESSIVELY.
   ELEMENT 456 IS DISTORTING EXCESSIVELY.
   ELEMENT 456 IS DISTORTING EXCESSIVELY.
   ELEMENT 456 IS DISTORTING EXCESSIVELY.
   ELEMENT 456 IS DISTORTING EXCESSIVELY.
   ELEMENT 456 IS DISTORTING EXCESSIVELY.
   ELEMENT 457 IS DISTORTING EXCESSIVELY.
   ELEMENT 457 IS DISTORTING EXCESSIVELY.
   ELEMENT 457 IS DISTORTING EXCESSIVELY.
   ELEMENT 457 IS DISTORTING EXCESSIVELY.
   ELEMENT 457 IS DISTORTING EXCESSIVELY.
   ELEMENT 457 IS DISTORTING EXCESSIVELY.
   ELEMENT 457 IS DISTORTING EXCESSIVELY.
   ELEMENT 457 IS DISTORTING EXCESSIVELY.
   ELEMENT 458 IS DISTORTING EXCESSIVELY.
   ELEMENT 458 IS DISTORTING EXCESSIVELY.
   ELEMENT 458 IS DISTORTING EXCESSIVELY.
   ELEMENT 458 IS DISTORTING EXCESSIVELY.
   ELEMENT 309 IS DISTORTING EXCESSIVELY.
   ELEMENT 309 IS DISTORTING EXCESSIVELY.
   ELEMENT 309 IS DISTORTING EXCESSIVELY.
   ELEMENT 309 IS DISTORTING EXCESSIVELY.
   ELEMENT 309 IS DISTORTING EXCESSIVELY.
   ELEMENT 309 IS DISTORTING EXCESSIVELY.
   ELEMENT 309 IS DISTORTING EXCESSIVELY.
   ELEMENT 309 IS DISTORTING EXCESSIVELY.
   ELEMENT 310 IS DISTORTING EXCESSIVELY.
   ELEMENT 310 IS DISTORTING EXCESSIVELY.
   ELEMENT 310 IS DISTORTING EXCESSIVELY.
   ELEMENT 310 IS DISTORTING EXCESSIVELY.
   ELEMENT 310 IS DISTORTING EXCESSIVELY.
   ELEMENT 310 IS DISTORTING EXCESSIVELY.
   ELEMENT 310 IS DISTORTING EXCESSIVELY.
   ELEMENT 310 IS DISTORTING EXCESSIVELY.
   ELEMENT 311 IS DISTORTING EXCESSIVELY.
   ELEMENT 311 IS DISTORTING EXCESSIVELY.
   ELEMENT 311 IS DISTORTING EXCESSIVELY.
   ELEMENT 311 IS DISTORTING EXCESSIVELY.
   ELEMENT 311 IS DISTORTING EXCESSIVELY.
   ELEMENT 311 IS DISTORTING EXCESSIVELY.
   ELEMENT 238 IS DISTORTING EXCESSIVELY.
   ELEMENT 238 IS DISTORTING EXCESSIVELY.
   ELEMENT 238 IS DISTORTING EXCESSIVELY.
   ELEMENT 238 IS DISTORTING EXCESSIVELY.
   ELEMENT 603 IS DISTORTING EXCESSIVELY.
   ELEMENT 603 IS DISTORTING EXCESSIVELY.
   ELEMENT 603 IS DISTORTING EXCESSIVELY.
   ELEMENT 603 IS DISTORTING EXCESSIVELY.
   ELEMENT 603 IS DISTORTING EXCESSIVELY.
   ELEMENT 603 IS DISTORTING EXCESSIVELY.
   ELEMENT 603 IS DISTORTING EXCESSIVELY.
   ELEMENT 603 IS DISTORTING EXCESSIVELY.
   ELEMENT 604 IS DISTORTING EXCESSIVELY.
   ELEMENT 604 IS DISTORTING EXCESSIVELY.
   ELEMENT 604 IS DISTORTING EXCESSIVELY.
   ELEMENT 604 IS DISTORTING EXCESSIVELY.
   ELEMENT 604 IS DISTORTING EXCESSIVELY.
   ELEMENT 604 IS DISTORTING EXCESSIVELY.
   ELEMENT 604 IS DISTORTING EXCESSIVELY.
   ELEMENT 604 IS DISTORTING EXCESSIVELY.
   ELEMENT 605 IS DISTORTING EXCESSIVELY.
   ELEMENT 605 IS DISTORTING EXCESSIVELY.
   ELEMENT 273 IS DISTORTING EXCESSIVELY.
   ELEMENT 273 IS DISTORTING EXCESSIVELY.
   ELEMENT 273 IS DISTORTING EXCESSIVELY.
   ELEMENT 273 IS DISTORTING EXCESSIVELY.
   ELEMENT 273 IS DISTORTING EXCESSIVELY.
   ELEMENT 273 IS DISTORTING EXCESSIVELY.
   ELEMENT 273 IS DISTORTING EXCESSIVELY.
   ELEMENT 273 IS DISTORTING EXCESSIVELY.
   ELEMENT 274 IS DISTORTING EXCESSIVELY.
   ELEMENT 274 IS DISTORTING EXCESSIVELY.
   ELEMENT 274 IS DISTORTING EXCESSIVELY.
   ELEMENT 274 IS DISTORTING EXCESSIVELY.
   ELEMENT 274 IS DISTORTING EXCESSIVELY.
   ELEMENT 274 IS DISTORTING EXCESSIVELY.
   ELEMENT 274 IS DISTORTING EXCESSIVELY.
   ELEMENT 274 IS DISTORTING EXCESSIVELY.
   ELEMENT 275 IS DISTORTING EXCESSIVELY.
   ELEMENT 528 IS DISTORTING EXCESSIVELY.
   ELEMENT 528 IS DISTORTING EXCESSIVELY.
   ELEMENT 528 IS DISTORTING EXCESSIVELY.
   ELEMENT 528 IS DISTORTING EXCESSIVELY.
   ELEMENT 528 IS DISTORTING EXCESSIVELY.
   ELEMENT 528 IS DISTORTING EXCESSIVELY.
   ELEMENT 528 IS DISTORTING EXCESSIVELY.
   ELEMENT 528 IS DISTORTING EXCESSIVELY.
   ELEMENT 529 IS DISTORTING EXCESSIVELY.
   ELEMENT 529 IS DISTORTING EXCESSIVELY.
   ELEMENT 529 IS DISTORTING EXCESSIVELY.
   ELEMENT 529 IS DISTORTING EXCESSIVELY.
   ELEMENT 529 IS DISTORTING EXCESSIVELY.
   ELEMENT 529 IS DISTORTING EXCESSIVELY.
   ELEMENT 529 IS DISTORTING EXCESSIVELY.
   ELEMENT 529 IS DISTORTING EXCESSIVELY.
   ELEMENT 530 IS DISTORTING EXCESSIVELY.
   ELEMENT 530 IS DISTORTING EXCESSIVELY.
   ELEMENT 530 IS DISTORTING EXCESSIVELY.
   ELEMENT 530 IS DISTORTING EXCESSIVELY.
   ELEMENT 530 IS DISTORTING EXCESSIVELY.
   ELEMENT 530 IS DISTORTING EXCESSIVELY.
   ELEMENT 530 IS DISTORTING EXCESSIVELY.
   ELEMENT 530 IS DISTORTING EXCESSIVELY.
   ELEMENT 531 IS DISTORTING EXCESSIVELY.
   ELEMENT 531 IS DISTORTING EXCESSIVELY.
   ELEMENT 531 IS DISTORTING EXCESSIVELY.
   ELEMENT 531 IS DISTORTING EXCESSIVELY.
   ELEMENT 531 IS DISTORTING EXCESSIVELY.
   ELEMENT 531 IS DISTORTING EXCESSIVELY.
   ELEMENT 531 IS DISTORTING EXCESSIVELY.
   ELEMENT 418 IS DISTORTING EXCESSIVELY.
   ELEMENT 418 IS DISTORTING EXCESSIVELY.
   ELEMENT 418 IS DISTORTING EXCESSIVELY.
   ELEMENT 418 IS DISTORTING EXCESSIVELY.
   ELEMENT 418 IS DISTORTING EXCESSIVELY.
   ELEMENT 418 IS DISTORTING EXCESSIVELY.
   ELEMENT 418 IS DISTORTING EXCESSIVELY.
   ELEMENT 418 IS DISTORTING EXCESSIVELY.
   ELEMENT 419 IS DISTORTING EXCESSIVELY.
   ELEMENT 419 IS DISTORTING EXCESSIVELY.
   ELEMENT 419 IS DISTORTING EXCESSIVELY.
   ELEMENT 419 IS DISTORTING EXCESSIVELY.
   ELEMENT 419 IS DISTORTING EXCESSIVELY.
   ELEMENT 419 IS DISTORTING EXCESSIVELY.
   ELEMENT 419 IS DISTORTING EXCESSIVELY.
   ELEMENT 419 IS DISTORTING EXCESSIVELY.
   ELEMENT 420 IS DISTORTING EXCESSIVELY.
   ELEMENT 420 IS DISTORTING EXCESSIVELY.
   ELEMENT 420 IS DISTORTING EXCESSIVELY.
   ELEMENT 420 IS DISTORTING EXCESSIVELY.
   ELEMENT 420 IS DISTORTING EXCESSIVELY.
   ELEMENT 420 IS DISTORTING EXCESSIVELY.
   ELEMENT 420 IS DISTORTING EXCESSIVELY.
   ELEMENT 420 IS DISTORTING EXCESSIVELY.
   ELEMENT 381 IS DISTORTING EXCESSIVELY.
   ELEMENT 381 IS DISTORTING EXCESSIVELY.
   ELEMENT 381 IS DISTORTING EXCESSIVELY.
   ELEMENT 381 IS DISTORTING EXCESSIVELY.
   ELEMENT 381 IS DISTORTING EXCESSIVELY.
   ELEMENT 381 IS DISTORTING EXCESSIVELY.
   ELEMENT 381 IS DISTORTING EXCESSIVELY.
   ELEMENT 381 IS DISTORTING EXCESSIVELY.
   ELEMENT 382 IS DISTORTING EXCESSIVELY.
   ELEMENT 382 IS DISTORTING EXCESSIVELY.
   ELEMENT 382 IS DISTORTING EXCESSIVELY.
   ELEMENT 382 IS DISTORTING EXCESSIVELY.
   ELEMENT 382 IS DISTORTING EXCESSIVELY.
   ELEMENT 382 IS DISTORTING EXCESSIVELY.
   ELEMENT 382 IS DISTORTING EXCESSIVELY.
   ELEMENT 382 IS DISTORTING EXCESSIVELY.
   ELEMENT 383 IS DISTORTING EXCESSIVELY.
   ELEMENT 383 IS DISTORTING EXCESSIVELY.
   ELEMENT 383 IS DISTORTING EXCESSIVELY.
   ELEMENT 383 IS DISTORTING EXCESSIVELY.
   ELEMENT 383 IS DISTORTING EXCESSIVELY.
   ELEMENT 383 IS DISTORTING EXCESSIVELY.
   ELEMENT 383 IS DISTORTING EXCESSIVELY.
   ELEMENT 383 IS DISTORTING EXCESSIVELY.
   ELEMENT 384 IS DISTORTING EXCESSIVELY.
   ELEMENT 384 IS DISTORTING EXCESSIVELY.
   ELEMENT 384 IS DISTORTING EXCESSIVELY.
   ELEMENT 384 IS DISTORTING EXCESSIVELY.
   ELEMENT 384 IS DISTORTING EXCESSIVELY.
   ELEMENT 384 IS DISTORTING EXCESSIVELY.
   ELEMENT 384 IS DISTORTING EXCESSIVELY.
   ELEMENT 384 IS DISTORTING EXCESSIVELY.
   ELEMENT 385 IS DISTORTING EXCESSIVELY.
   ELEMENT 385 IS DISTORTING EXCESSIVELY.

 ***WARNING: EXCESSIVE DISTORTION AT A TOTAL OF 312 INTEGRATION POINTS IN SOLID 
             (CONTINUUM) ELEMENTS
 

 ***NOTE: ELEMENTS ARE DISTORTING EXCESSIVELY. CONVERGENCE IS JUDGED UNLIKELY.


  INCREMENT     1 STARTS. ATTEMPT NUMBER  2, TIME INCREMENT  1.250E-02
 
     INITIAL ELEMENT LOAD BALANCE
            PROCESS    1   THREAD     NUMBER OF ELEMENTS
                              1            13
                              2            13
                              3            13
                              4            13
                              5            13
                              6            13
                              7            26
                              8            13
                              9            13
                             10            13
                             11            13
                             12            13
                             13            13
                             14            13
                             15            13
                             16            13
                             17            13
                             18            13
                             19            13
                             20            13
                             21            13
                             22            13
                             23            15
                             24            13

  NUMBER OF EQUATIONS =      1116     NUMBER OF RHS =    1
  NUMBER OF FLOATING PT. OPERATIONS =  9.14E+06

  USING THE DIRECT SOLVER WITH  24 PROCESSORS

     CHECK POINT   START OF SOLVER    

     CHECK POINT  END OF SOLVER       

       ELAPSED USER TIME (SEC)      =  0.11000    
       ELAPSED SYSTEM TIME (SEC)    =  3.00000E-02
       ELAPSED TOTAL CPU TIME (SEC) =  0.14000    
       ELAPSED WALLCLOCK TIME (SEC) =          0
   ELEMENT 454 IS DISTORTING EXCESSIVELY.
   ELEMENT 454 IS DISTORTING EXCESSIVELY.

 ***WARNING: EXCESSIVE DISTORTION AT A TOTAL OF 2 INTEGRATION POINTS IN SOLID 
             (CONTINUUM) ELEMENTS
 

 ***NOTE: ELEMENTS ARE DISTORTING EXCESSIVELY. CONVERGENCE IS JUDGED UNLIKELY.


  INCREMENT     1 STARTS. ATTEMPT NUMBER  3, TIME INCREMENT  3.125E-03
 
     INITIAL ELEMENT LOAD BALANCE
            PROCESS    1   THREAD     NUMBER OF ELEMENTS
                              1            13
                              2            13
                              3            13
                              4            13
                              5            13
                              6            13
                              7            15
                              8            13
                              9            13
                             10            13
                             11            13
                             12            13
                             13            13
                             14            13
                             15            13
                             16            13
                             17            13
                             18            13
                             19            13
                             20            13
                             21            26
                             22            13
                             23            13
                             24            13

  NUMBER OF EQUATIONS =      1116     NUMBER OF RHS =    1
  NUMBER OF FLOATING PT. OPERATIONS =  9.14E+06

  USING THE DIRECT SOLVER WITH  24 PROCESSORS

     CHECK POINT   START OF SOLVER    

     CHECK POINT  END OF SOLVER       

       ELAPSED USER TIME (SEC)      =  0.12000    
       ELAPSED SYSTEM TIME (SEC)    =  3.00000E-02
       ELAPSED TOTAL CPU TIME (SEC) =  0.15000    
       ELAPSED WALLCLOCK TIME (SEC) =          0

               CONVERGENCE CHECKS FOR EQUILIBRIUM ITERATION     1


 AVERAGE FORCE                       146.       TIME AVG. FORCE        146.    
 ALL FORCE     RESIDUALS ARE ZERO
 LARGEST INCREMENT OF DISP.         6.028E-02   AT NODE        466   DOF  3
 LARGEST CORRECTION TO DISP.        6.028E-02   AT NODE        466   DOF  3
          THE FORCE     EQUILIBRIUM RESPONSE WAS LINEAR IN THIS INCREMENT

 AVERAGE MOMENT                      0.00       TIME AVG. MOMENT       182.    
                                                (FROM FORCE     FIELD)
 ALL MOMENT    RESIDUALS ARE ZERO
 LARGEST INCREMENT OF ROTATION      3.944E-03   AT NODE        212   DOF  5
 LARGEST CORRECTION TO ROTATION     3.944E-03   AT NODE        212   DOF  5
          THERE IS ZERO MOMENT    EVERYWHERE

 ITERATION SUMMARY FOR THE INCREMENT:   1 TOTAL ITERATIONS, OF WHICH
   0 ARE SEVERE DISCONTINUITY ITERATIONS AND  1 ARE EQUILIBRIUM ITERATIONS.

 TIME INCREMENT COMPLETED  3.125E-03,  FRACTION OF STEP COMPLETED  3.125E-03
 STEP TIME COMPLETED       3.125E-03,  TOTAL TIME COMPLETED         1.00    


  INCREMENT     2 STARTS. ATTEMPT NUMBER  1, TIME INCREMENT  3.125E-03

  NUMBER OF EQUATIONS =      1116     NUMBER OF RHS =    1
  NUMBER OF FLOATING PT. OPERATIONS =  9.14E+06

  USING THE DIRECT SOLVER WITH  24 PROCESSORS

     CHECK POINT   START OF SOLVER    

     CHECK POINT  END OF SOLVER       

       ELAPSED USER TIME (SEC)      =  0.11000    
       ELAPSED SYSTEM TIME (SEC)    =  4.00000E-02
       ELAPSED TOTAL CPU TIME (SEC) =  0.15000    
       ELAPSED WALLCLOCK TIME (SEC) =          0

               CONVERGENCE CHECKS FOR EQUILIBRIUM ITERATION     1


 AVERAGE FORCE                       174.       TIME AVG. FORCE        160.    
 ALL FORCE     RESIDUALS ARE ZERO
 LARGEST INCREMENT OF DISP.         6.027E-02   AT NODE        466   DOF  3
 LARGEST CORRECTION TO DISP.        2.347E-04   AT NODE        466   DOF  1
          THE FORCE     EQUILIBRIUM RESPONSE WAS LINEAR IN THIS INCREMENT

 AVERAGE MOMENT                      0.00       TIME AVG. MOMENT       182.    
                                                (FROM FORCE     FIELD)
 ALL MOMENT    RESIDUALS ARE ZERO
 LARGEST INCREMENT OF ROTATION      3.944E-03   AT NODE        212   DOF  5
 LARGEST CORRECTION TO ROTATION    -4.263E-30   AT NODE        212   DOF  5
          THERE IS ZERO MOMENT    EVERYWHERE
          TIME INCREMENT MAY NOW INCREASE TO    4.688E-03

 ITERATION SUMMARY FOR THE INCREMENT:   1 TOTAL ITERATIONS, OF WHICH
   0 ARE SEVERE DISCONTINUITY ITERATIONS AND  1 ARE EQUILIBRIUM ITERATIONS.

 TIME INCREMENT COMPLETED  3.125E-03,  FRACTION OF STEP COMPLETED  6.250E-03
 STEP TIME COMPLETED       6.250E-03,  TOTAL TIME COMPLETED         1.01    


  INCREMENT     3 STARTS. ATTEMPT NUMBER  1, TIME INCREMENT  4.688E-03

  NUMBER OF EQUATIONS =      1116     NUMBER OF RHS =    1
  NUMBER OF FLOATING PT. OPERATIONS =  9.14E+06

  USING THE DIRECT SOLVER WITH  24 PROCESSORS

     CHECK POINT   START OF SOLVER    

     CHECK POINT  END OF SOLVER       

       ELAPSED USER TIME (SEC)      =  0.13000    
       ELAPSED SYSTEM TIME (SEC)    =  2.00000E-02
       ELAPSED TOTAL CPU TIME (SEC) =  0.15000    
       ELAPSED WALLCLOCK TIME (SEC) =          0

               CONVERGENCE CHECKS FOR EQUILIBRIUM ITERATION     1


 AVERAGE FORCE                       257.       TIME AVG. FORCE        192.    
 ALL FORCE     RESIDUALS ARE ZERO
 LARGEST INCREMENT OF DISP.         9.037E-02   AT NODE        466   DOF  3
 LARGEST CORRECTION TO DISP.        4.398E-04   AT NODE        466   DOF  1
          THE FORCE     EQUILIBRIUM RESPONSE WAS LINEAR IN THIS INCREMENT

 AVERAGE MOMENT                      0.00       TIME AVG. MOMENT       199.    
                                                (FROM FORCE     FIELD)
 ALL MOMENT    RESIDUALS ARE ZERO
 LARGEST INCREMENT OF ROTATION      5.916E-03   AT NODE        212   DOF  5
 LARGEST CORRECTION TO ROTATION    -2.168E-18   AT NODE        212   DOF  4
          THERE IS ZERO MOMENT    EVERYWHERE
          TIME INCREMENT MAY NOW INCREASE TO    7.031E-03

 ITERATION SUMMARY FOR THE INCREMENT:   1 TOTAL ITERATIONS, OF WHICH
   0 ARE SEVERE DISCONTINUITY ITERATIONS AND  1 ARE EQUILIBRIUM ITERATIONS.

 TIME INCREMENT COMPLETED  4.688E-03,  FRACTION OF STEP COMPLETED  1.094E-02
 STEP TIME COMPLETED       1.094E-02,  TOTAL TIME COMPLETED         1.01    


  INCREMENT     4 STARTS. ATTEMPT NUMBER  1, TIME INCREMENT  7.031E-03

 ***WARNING: EXCESSIVE DISTORTION AT A TOTAL OF 33 INTEGRATION POINTS IN SOLID 
             (CONTINUUM) ELEMENTS


  INCREMENT     4 STARTS. ATTEMPT NUMBER  2, TIME INCREMENT  1.758E-03
 

 ***NOTE: ELEMENTS ARE DISTORTING EXCESSIVELY. CONVERGENCE IS JUDGED UNLIKELY.
   ELEMENT 454 IS DISTORTING EXCESSIVELY.
   ELEMENT 454 IS DISTORTING EXCESSIVELY.
   ELEMENT 454 IS DISTORTING EXCESSIVELY.

 ***WARNING: EXCESSIVE DISTORTION AT A TOTAL OF 3 INTEGRATION POINTS IN SOLID 
             (CONTINUUM) ELEMENTS
 

 ***NOTE: ELEMENTS ARE DISTORTING EXCESSIVELY. CONVERGENCE IS JUDGED UNLIKELY.


  INCREMENT     4 STARTS. ATTEMPT NUMBER  3, TIME INCREMENT  4.395E-04

  NUMBER OF EQUATIONS =      1116     NUMBER OF RHS =    1
  NUMBER OF FLOATING PT. OPERATIONS =  9.14E+06

  USING THE DIRECT SOLVER WITH  24 PROCESSORS

     CHECK POINT   START OF SOLVER    

     CHECK POINT  END OF SOLVER       

       ELAPSED USER TIME (SEC)      =  0.14000    
       ELAPSED SYSTEM TIME (SEC)    =  1.00000E-02
       ELAPSED TOTAL CPU TIME (SEC) =  0.15000    
       ELAPSED WALLCLOCK TIME (SEC) =          0

               CONVERGENCE CHECKS FOR EQUILIBRIUM ITERATION     1


 AVERAGE FORCE                       277.       TIME AVG. FORCE        214.    
 ALL FORCE     RESIDUALS ARE ZERO
 LARGEST INCREMENT OF DISP.         8.470E-03   AT NODE        466   DOF  3
 LARGEST CORRECTION TO DISP.        8.470E-03   AT NODE        466   DOF  3
          THE FORCE     EQUILIBRIUM RESPONSE WAS LINEAR IN THIS INCREMENT

 AVERAGE MOMENT                      0.00       TIME AVG. MOMENT       240.    
                                                (FROM FORCE     FIELD)
 ALL MOMENT    RESIDUALS ARE ZERO
 LARGEST INCREMENT OF ROTATION      5.546E-04   AT NODE        212   DOF  5
 LARGEST CORRECTION TO ROTATION     5.546E-04   AT NODE        212   DOF  5
          THERE IS ZERO MOMENT    EVERYWHERE
          TIME INCREMENT MAY NOW INCREASE TO    6.592E-04

 ITERATION SUMMARY FOR THE INCREMENT:   1 TOTAL ITERATIONS, OF WHICH
   0 ARE SEVERE DISCONTINUITY ITERATIONS AND  1 ARE EQUILIBRIUM ITERATIONS.

 TIME INCREMENT COMPLETED  4.395E-04,  FRACTION OF STEP COMPLETED  1.138E-02
 STEP TIME COMPLETED       1.138E-02,  TOTAL TIME COMPLETED         1.01    
   ELEMENT 491 IS DISTORTING EXCESSIVELY.
   ELEMENT 491 IS DISTORTING EXCESSIVELY.
   ELEMENT 491 IS DISTORTING EXCESSIVELY.
   ELEMENT 491 IS DISTORTING EXCESSIVELY.
   ELEMENT 491 IS DISTORTING EXCESSIVELY.
   ELEMENT 491 IS DISTORTING EXCESSIVELY.
   ELEMENT 491 IS DISTORTING EXCESSIVELY.
   ELEMENT 491 IS DISTORTING EXCESSIVELY.
   ELEMENT 565 IS DISTORTING EXCESSIVELY.
   ELEMENT 565 IS DISTORTING EXCESSIVELY.
   ELEMENT 565 IS DISTORTING EXCESSIVELY.
   ELEMENT 565 IS DISTORTING EXCESSIVELY.
   ELEMENT 418 IS DISTORTING EXCESSIVELY.
   ELEMENT 418 IS DISTORTING EXCESSIVELY.
   ELEMENT 418 IS DISTORTING EXCESSIVELY.
   ELEMENT 418 IS DISTORTING EXCESSIVELY.
   ELEMENT 528 IS DISTORTING EXCESSIVELY.
   ELEMENT 528 IS DISTORTING EXCESSIVELY.
   ELEMENT 528 IS DISTORTING EXCESSIVELY.
   ELEMENT 528 IS DISTORTING EXCESSIVELY.
   ELEMENT 454 IS DISTORTING EXCESSIVELY.
   ELEMENT 454 IS DISTORTING EXCESSIVELY.
   ELEMENT 454 IS DISTORTING EXCESSIVELY.
   ELEMENT 454 IS DISTORTING EXCESSIVELY.
   ELEMENT 454 IS DISTORTING EXCESSIVELY.
   ELEMENT 454 IS DISTORTING EXCESSIVELY.
   ELEMENT 454 IS DISTORTING EXCESSIVELY.
   ELEMENT 454 IS DISTORTING EXCESSIVELY.
   ELEMENT 455 IS DISTORTING EXCESSIVELY.
   ELEMENT 381 IS DISTORTING EXCESSIVELY.
   ELEMENT 381 IS DISTORTING EXCESSIVELY.
   ELEMENT 381 IS DISTORTING EXCESSIVELY.
   ELEMENT 381 IS DISTORTING EXCESSIVELY.


  INCREMENT     5 STARTS. ATTEMPT NUMBER  1, TIME INCREMENT  6.592E-04

 ***WARNING: EXCESSIVE DISTORTION AT A TOTAL OF 1 INTEGRATION POINTS IN SOLID 
             (CONTINUUM) ELEMENTS


  INCREMENT     5 STARTS. ATTEMPT NUMBER  2, TIME INCREMENT  1.648E-04
 

 ***NOTE: ELEMENTS ARE DISTORTING EXCESSIVELY. CONVERGENCE IS JUDGED UNLIKELY.

  NUMBER OF EQUATIONS =      1116     NUMBER OF RHS =    1
  NUMBER OF FLOATING PT. OPERATIONS =  9.14E+06

  USING THE DIRECT SOLVER WITH  24 PROCESSORS

     CHECK POINT   START OF SOLVER    

     CHECK POINT  END OF SOLVER       

       ELAPSED USER TIME (SEC)      =  0.12000    
       ELAPSED SYSTEM TIME (SEC)    =  2.00000E-02
       ELAPSED TOTAL CPU TIME (SEC) =  0.14000    
       ELAPSED WALLCLOCK TIME (SEC) =          0

               CONVERGENCE CHECKS FOR EQUILIBRIUM ITERATION     1


 AVERAGE FORCE                       286.       TIME AVG. FORCE        228.    
 ALL FORCE     RESIDUALS ARE ZERO
 LARGEST INCREMENT OF DISP.         3.176E-03   AT NODE        466   DOF  3
 LARGEST CORRECTION TO DISP.        1.195E-06   AT NODE        466   DOF  1
          THE FORCE     EQUILIBRIUM RESPONSE WAS LINEAR IN THIS INCREMENT

 AVERAGE MOMENT                      0.00       TIME AVG. MOMENT       266.    
                                                (FROM FORCE     FIELD)
 ALL MOMENT    RESIDUALS ARE ZERO
 LARGEST INCREMENT OF ROTATION      2.080E-04   AT NODE        212   DOF  5
 LARGEST CORRECTION TO ROTATION    -8.647E-18   AT NODE        212   DOF  5
          THERE IS ZERO MOMENT    EVERYWHERE
          TIME INCREMENT MAY NOW INCREASE TO    2.472E-04

 ITERATION SUMMARY FOR THE INCREMENT:   1 TOTAL ITERATIONS, OF WHICH
   0 ARE SEVERE DISCONTINUITY ITERATIONS AND  1 ARE EQUILIBRIUM ITERATIONS.

 TIME INCREMENT COMPLETED  1.648E-04,  FRACTION OF STEP COMPLETED  1.154E-02
 STEP TIME COMPLETED       1.154E-02,  TOTAL TIME COMPLETED         1.01    
   ELEMENT 454 IS DISTORTING EXCESSIVELY.


  INCREMENT     6 STARTS. ATTEMPT NUMBER  1, TIME INCREMENT  2.472E-04

  NUMBER OF EQUATIONS =      1116     NUMBER OF RHS =    1
  NUMBER OF FLOATING PT. OPERATIONS =  9.14E+06

  USING THE DIRECT SOLVER WITH  24 PROCESSORS

     CHECK POINT   START OF SOLVER    

     CHECK POINT  END OF SOLVER       

       ELAPSED USER TIME (SEC)      =  0.14000    
       ELAPSED SYSTEM TIME (SEC)    =  2.00000E-02
       ELAPSED TOTAL CPU TIME (SEC) =  0.16000    
       ELAPSED WALLCLOCK TIME (SEC) =          0

               CONVERGENCE CHECKS FOR EQUILIBRIUM ITERATION     1


 AVERAGE FORCE                       300.       TIME AVG. FORCE        240.    
 ALL FORCE     RESIDUALS ARE ZERO
 LARGEST INCREMENT OF DISP.         4.764E-03   AT NODE        466   DOF  3
 LARGEST CORRECTION TO DISP.        1.222E-06   AT NODE        466   DOF  1
          THE FORCE     EQUILIBRIUM RESPONSE WAS LINEAR IN THIS INCREMENT

 AVERAGE MOMENT                      0.00       TIME AVG. MOMENT       284.    
                                                (FROM FORCE     FIELD)
 ALL MOMENT    RESIDUALS ARE ZERO
 LARGEST INCREMENT OF ROTATION      3.120E-04   AT NODE        212   DOF  5
 LARGEST CORRECTION TO ROTATION     3.459E-17   AT NODE        212   DOF  5
          THERE IS ZERO MOMENT    EVERYWHERE
          TIME INCREMENT MAY NOW INCREASE TO    3.708E-04

 ITERATION SUMMARY FOR THE INCREMENT:   1 TOTAL ITERATIONS, OF WHICH
   0 ARE SEVERE DISCONTINUITY ITERATIONS AND  1 ARE EQUILIBRIUM ITERATIONS.

 TIME INCREMENT COMPLETED  2.472E-04,  FRACTION OF STEP COMPLETED  1.179E-02
 STEP TIME COMPLETED       1.179E-02,  TOTAL TIME COMPLETED         1.01    


  INCREMENT     7 STARTS. ATTEMPT NUMBER  1, TIME INCREMENT  3.708E-04

 ***WARNING: EXCESSIVE DISTORTION AT A TOTAL OF 2 INTEGRATION POINTS IN SOLID 
             (CONTINUUM) ELEMENTS


  INCREMENT     7 STARTS. ATTEMPT NUMBER  2, TIME INCREMENT  9.270E-05
 

 ***NOTE: ELEMENTS ARE DISTORTING EXCESSIVELY. CONVERGENCE IS JUDGED UNLIKELY.

  NUMBER OF EQUATIONS =      1116     NUMBER OF RHS =    1
  NUMBER OF FLOATING PT. OPERATIONS =  9.14E+06

  USING THE DIRECT SOLVER WITH  24 PROCESSORS

     CHECK POINT   START OF SOLVER    

     CHECK POINT  END OF SOLVER       

       ELAPSED USER TIME (SEC)      =  0.13000    
       ELAPSED SYSTEM TIME (SEC)    =  1.00000E-02
       ELAPSED TOTAL CPU TIME (SEC) =  0.14000    
       ELAPSED WALLCLOCK TIME (SEC) =          0

               CONVERGENCE CHECKS FOR EQUILIBRIUM ITERATION     1


 AVERAGE FORCE                       308.       TIME AVG. FORCE        250.    
 ALL FORCE     RESIDUALS ARE ZERO
 LARGEST INCREMENT OF DISP.         1.786E-03   AT NODE        466   DOF  3
 LARGEST CORRECTION TO DISP.        3.781E-07   AT NODE        466   DOF  1
          THE FORCE     EQUILIBRIUM RESPONSE WAS LINEAR IN THIS INCREMENT

 AVERAGE MOMENT                      0.00       TIME AVG. MOMENT       299.    
                                                (FROM FORCE     FIELD)
 ALL MOMENT    RESIDUALS ARE ZERO
 LARGEST INCREMENT OF ROTATION      1.170E-04   AT NODE        212   DOF  5
 LARGEST CORRECTION TO ROTATION     8.674E-18   AT NODE        212   DOF  5
          THERE IS ZERO MOMENT    EVERYWHERE
          TIME INCREMENT MAY NOW INCREASE TO    1.390E-04

 ITERATION SUMMARY FOR THE INCREMENT:   1 TOTAL ITERATIONS, OF WHICH
   0 ARE SEVERE DISCONTINUITY ITERATIONS AND  1 ARE EQUILIBRIUM ITERATIONS.

 TIME INCREMENT COMPLETED  9.270E-05,  FRACTION OF STEP COMPLETED  1.188E-02
 STEP TIME COMPLETED       1.188E-02,  TOTAL TIME COMPLETED         1.01    
   ELEMENT 454 IS DISTORTING EXCESSIVELY.
   ELEMENT 454 IS DISTORTING EXCESSIVELY.


  INCREMENT     8 STARTS. ATTEMPT NUMBER  1, TIME INCREMENT  1.390E-04

 ***WARNING: EXCESSIVE DISTORTION AT A TOTAL OF 1 INTEGRATION POINTS IN SOLID 
             (CONTINUUM) ELEMENTS


  INCREMENT     8 STARTS. ATTEMPT NUMBER  2, TIME INCREMENT  5.000E-05
 

 ***NOTE: ELEMENTS ARE DISTORTING EXCESSIVELY. CONVERGENCE IS JUDGED UNLIKELY.

  NUMBER OF EQUATIONS =      1116     NUMBER OF RHS =    1
  NUMBER OF FLOATING PT. OPERATIONS =  9.14E+06

  USING THE DIRECT SOLVER WITH  24 PROCESSORS

     CHECK POINT   START OF SOLVER    

     CHECK POINT  END OF SOLVER       

       ELAPSED USER TIME (SEC)      =  0.12000    
       ELAPSED SYSTEM TIME (SEC)    =  2.00000E-02
       ELAPSED TOTAL CPU TIME (SEC) =  0.14000    
       ELAPSED WALLCLOCK TIME (SEC) =          0

               CONVERGENCE CHECKS FOR EQUILIBRIUM ITERATION     1


 AVERAGE FORCE                       313.       TIME AVG. FORCE        258.    
 ALL FORCE     RESIDUALS ARE ZERO
 LARGEST INCREMENT OF DISP.         9.636E-04   AT NODE        466   DOF  3
 LARGEST CORRECTION TO DISP.        8.563E-08   AT NODE        466   DOF  1
          THE FORCE     EQUILIBRIUM RESPONSE WAS LINEAR IN THIS INCREMENT

 AVERAGE MOMENT                      0.00       TIME AVG. MOMENT       311.    
                                                (FROM FORCE     FIELD)
 ALL MOMENT    RESIDUALS ARE ZERO
 LARGEST INCREMENT OF ROTATION      6.310E-05   AT NODE        212   DOF  5
 LARGEST CORRECTION TO ROTATION    -1.195E-17   AT NODE        212   DOF  5
          THERE IS ZERO MOMENT    EVERYWHERE
          TIME INCREMENT MAY NOW INCREASE TO    7.500E-05

 ITERATION SUMMARY FOR THE INCREMENT:   1 TOTAL ITERATIONS, OF WHICH
   0 ARE SEVERE DISCONTINUITY ITERATIONS AND  1 ARE EQUILIBRIUM ITERATIONS.

 TIME INCREMENT COMPLETED  5.000E-05,  FRACTION OF STEP COMPLETED  1.193E-02
 STEP TIME COMPLETED       1.193E-02,  TOTAL TIME COMPLETED         1.01    
   ELEMENT 454 IS DISTORTING EXCESSIVELY.


  INCREMENT     9 STARTS. ATTEMPT NUMBER  1, TIME INCREMENT  7.500E-05

 ***WARNING: EXCESSIVE DISTORTION AT A TOTAL OF 1 INTEGRATION POINTS IN SOLID 
             (CONTINUUM) ELEMENTS


  INCREMENT     9 STARTS. ATTEMPT NUMBER  2, TIME INCREMENT  5.000E-05

 ***WARNING: EXCESSIVE DISTORTION AT A TOTAL OF 1 INTEGRATION POINTS IN SOLID 
             (CONTINUUM) ELEMENTS
 

 ***NOTE: ELEMENTS ARE DISTORTING EXCESSIVELY. CONVERGENCE IS JUDGED UNLIKELY.
 

 ***NOTE: ELEMENTS ARE DISTORTING EXCESSIVELY. CONVERGENCE IS JUDGED UNLIKELY.
   ELEMENT 454 IS DISTORTING EXCESSIVELY.
   ELEMENT 454 IS DISTORTING EXCESSIVELY.
 

 ***ERROR: TIME INCREMENT REQUIRED IS LESS THAN THE MINIMUM SPECIFIED



     ANALYSIS SUMMARY:
     TOTAL OF         29  INCREMENTS
                       8  CUTBACKS IN AUTOMATIC INCREMENTATION
                      30  ITERATIONS INCLUDING CONTACT ITERATIONS IF PRESENT
                      30  PASSES THROUGH THE EQUATION SOLVER OF WHICH 
                      30  INVOLVE MATRIX DECOMPOSITION, INCLUDING
                       0  DECOMPOSITION(S) OF THE MASS MATRIX
                       1  REORDERING OF EQUATIONS TO MINIMIZE WAVEFRONT
                       0  ADDITIONAL RESIDUAL EVALUATIONS FOR LINE SEARCHES
                       0  ADDITIONAL OPERATOR EVALUATIONS FOR LINE SEARCHES
                     365  WARNING MESSAGES DURING USER INPUT PROCESSING
                       9  WARNING MESSAGES DURING ANALYSIS
                       0  ANALYSIS WARNINGS ARE NUMERICAL PROBLEM MESSAGES
                       0  ANALYSIS WARNINGS ARE NEGATIVE EIGENVALUE MESSAGES
                       1  ERROR MESSAGES



     JOB TIME SUMMARY
       USER TIME (SEC)      =   30.210    
       SYSTEM TIME (SEC)    =   7.6900    
       TOTAL CPU TIME (SEC) =   37.900    
       WALLCLOCK TIME (SEC) =          4

---------- RUNTIME EXCEPTION HAS OCCURRED ----------
*** ERROR: ABAQUS/standard rank 0 terminated by signal 6 (Aborted)
