 Abaqus/Standard 2021.HF4                  DATE 24-Feb-2023 TIME 15:31:55
 SUMMARY OF JOB INFORMATION:
 STEP  INC ATT SEVERE EQUIL TOTAL  TOTAL      STEP       INC OF       DOF    IF
               DISCON ITERS ITERS  TIME/    TIME/LPF    TIME/LPF    MONITOR RIKS
               ITERS               FREQ
   1     1   1     0     1     1  0.0500     0.0500     0.05000   
   1     2   1     0     1     1  0.100      0.100      0.05000   
   1     3   1     0     1     1  0.150      0.150      0.05000   
   1     4   1     0     1     1  0.200      0.200      0.05000   
   1     5   1     0     1     1  0.250      0.250      0.05000   
   1     6   1     0     1     1  0.300      0.300      0.05000   
   1     7   1     0     1     1  0.350      0.350      0.05000   
   1     8   1     0     1     1  0.400      0.400      0.05000   
   1     9   1     0     1     1  0.450      0.450      0.05000   
   1    10   1     0     1     1  0.500      0.500      0.05000   
   1    11   1     0     1     1  0.550      0.550      0.05000   
   1    12   1     0     1     1  0.600      0.600      0.05000   
   1    13   1     0     1     1  0.650      0.650      0.05000   
   1    14   1     0     1     1  0.700      0.700      0.05000   
   1    15   1     0     1     1  0.750      0.750      0.05000   
   1    16   1     0     1     1  0.800      0.800      0.05000   
   1    17   1     0     1     1  0.850      0.850      0.05000   
   1    18   1     0     1     1  0.900      0.900      0.05000   
   1    19   1     0     1     1  0.950      0.950      0.05000   
   1    20   1     0     1     1  1.00       1.00       0.05000   
   2     1   1     0     1     1  1.05       0.0500     0.05000   
   2     2   1U    0     1     1  1.05       0.0500     0.05000   
   2     2   2U    0     1     1  1.05       0.0500     0.01250   
   2     2   3     0     1     1  1.05       0.0531     0.003125  
   2     3   1     0     1     1  1.06       0.0578     0.004688  
   2     4   1U    0     1     1  1.06       0.0578     0.007031  
   2     4   2     0     1     1  1.06       0.0596     0.001758  
   2     5   1     0     1     1  1.06       0.0622     0.002637  
   2     6   1U    0     1     1  1.06       0.0622     0.003955  
   2     6   2U    0     1     1  1.06       0.0622     0.0009888 
   2     6   3U    0     1     1  1.06       0.0622     0.0002472 
   2     6   4     0     1     1  1.06       0.0623     6.180e-05 
   2     7   1U    0     1     1  1.06       0.0623     9.270e-05 
   2     7   2     0     1     1  1.06       0.0623     5.000e-05 
   2     8   1U    0     1     1  1.06       0.0623     7.500e-05 
   2     8   2U    0     0     0  1.06       0.0623     5.000e-05 
                          
 THE ANALYSIS HAS NOT BEEN COMPLETED
