1

   Abaqus 2021                                  Date 04-Mar-2023   Time 12:34:12
   For use by UNIVERSITAET BERN under license from Dassault Systemes or its subsidiary.



                         The Abaqus Software is a product of:

                           Dassault Systemes SIMULIA Corp.
                           1301 Atwood Avenue, Suite 101W
                              Johnston, RI 02919, USA
 


                   The Abaqus Software is available only under license
                   from Dassault Systemes or its subsidiary and may be
                   used or reproduced only in accordance with the terms
                   of such license.
 
                          On machine artorg-cortex.campus.unibe.ch 
                          you are authorized to run
                          Abaqus/Standard until 31-Jan-2024

                          Your site id is: 200000000031934 


 
                    For assistance or any other information you may
                    obtain contact information for your local office
                    from the world wide web at:

                      http://www.3ds.com/products/simulia/locations/

 
                * * * * * * * * * * * * * * * * * * * * * * * * * * * * * * 
                *                                                         * 
                *                   *****************                     * 
                *                   *  N O T I C E  *                     * 
                *                   *****************                     * 
                *                                                         * 
                *                                                         * 
                *                       Abaqus 2021                       * 
                *                                                         * 
                *          BUILD ID: 2020_03_06-15.50.37 167380           * 
                *                                                         * 
                *                                                         * 
                *  Please make sure you are using                         * 
                *  release Abaqus 2021 manuals                            * 
                *  plus the notes accompanying this release.              * 
                *                                                         * 
                *                                                         * 
                *                                                         * 
                *                                                         * 
                *                                                         * 
                *   This program may not be used for commercial purposes  * 
                *           without payment of a commercial fee.          * 
                *                                                         * 
                * * * * * * * * * * * * * * * * * * * * * * * * * * * * * * 


 



     PROCESSING PART, INSTANCE, AND ASSEMBLY INFORMATION
   *******************************************************


     END PROCESSING PART, INSTANCE, AND ASSEMBLY INFORMATION
   ***********************************************************




     OPTIONS BEING PROCESSED
   ***************************


  *NODE
  *ELEMENT, TYPE=C3D8, ELSET=BONE
  *ELEMENT, TYPE=C3D8, ELSET=Elset144

 ***WARNING: ELEMENT LABEL 144 HAS BEEN USED MORE THAN ONCE. ONLY THE LAST 
             DEFINITION IS CONSIDERED.
  *ELEMENT, TYPE=C3D8, ELSET=Elset145

 ***WARNING: ELEMENT LABEL 145 HAS BEEN USED MORE THAN ONCE. ONLY THE LAST 
             DEFINITION IS CONSIDERED.
  *ELEMENT, TYPE=C3D8, ELSET=Elset146

 ***WARNING: ELEMENT LABEL 146 HAS BEEN USED MORE THAN ONCE. ONLY THE LAST 
             DEFINITION IS CONSIDERED.
  *ELEMENT, TYPE=C3D8, ELSET=Elset147

 ***WARNING: ELEMENT LABEL 147 HAS BEEN USED MORE THAN ONCE. ONLY THE LAST 
             DEFINITION IS CONSIDERED.
  *ELEMENT, TYPE=C3D8, ELSET=Elset175

 ***WARNING: ELEMENT LABEL 175 HAS BEEN USED MORE THAN ONCE. ONLY THE LAST 
             DEFINITION IS CONSIDERED.
  *ELEMENT, TYPE=C3D8, ELSET=Elset176

 ***WARNING: ELEMENT LABEL 176 HAS BEEN USED MORE THAN ONCE. ONLY THE LAST 
             DEFINITION IS CONSIDERED.
  *ELEMENT, TYPE=C3D8, ELSET=Elset177

 ***WARNING: ELEMENT LABEL 177 HAS BEEN USED MORE THAN ONCE. ONLY THE LAST 
             DEFINITION IS CONSIDERED.
  *ELEMENT, TYPE=C3D8, ELSET=Elset178

 ***WARNING: ELEMENT LABEL 178 HAS BEEN USED MORE THAN ONCE. ONLY THE LAST 
             DEFINITION IS CONSIDERED.
  *ELEMENT, TYPE=C3D8, ELSET=Elset179

 ***WARNING: ELEMENT LABEL 179 HAS BEEN USED MORE THAN ONCE. ONLY THE LAST 
             DEFINITION IS CONSIDERED.
  *ELEMENT, TYPE=C3D8, ELSET=Elset180

 ***WARNING: ELEMENT LABEL 180 HAS BEEN USED MORE THAN ONCE. ONLY THE LAST 
             DEFINITION IS CONSIDERED.
  *ELEMENT, TYPE=C3D8, ELSET=Elset181

 ***WARNING: ELEMENT LABEL 181 HAS BEEN USED MORE THAN ONCE. ONLY THE LAST 
             DEFINITION IS CONSIDERED.
  *ELEMENT, TYPE=C3D8, ELSET=Elset182

 ***WARNING: ELEMENT LABEL 182 HAS BEEN USED MORE THAN ONCE. ONLY THE LAST 
             DEFINITION IS CONSIDERED.
  *ELEMENT, TYPE=C3D8, ELSET=Elset207

 ***WARNING: ELEMENT LABEL 207 HAS BEEN USED MORE THAN ONCE. ONLY THE LAST 
             DEFINITION IS CONSIDERED.
  *ELEMENT, TYPE=C3D8, ELSET=Elset208

 ***WARNING: ELEMENT LABEL 208 HAS BEEN USED MORE THAN ONCE. ONLY THE LAST 
             DEFINITION IS CONSIDERED.
  *ELEMENT, TYPE=C3D8, ELSET=Elset209

 ***WARNING: ELEMENT LABEL 209 HAS BEEN USED MORE THAN ONCE. ONLY THE LAST 
             DEFINITION IS CONSIDERED.
  *ELEMENT, TYPE=C3D8, ELSET=Elset210

 ***WARNING: ELEMENT LABEL 210 HAS BEEN USED MORE THAN ONCE. ONLY THE LAST 
             DEFINITION IS CONSIDERED.
  *ELEMENT, TYPE=C3D8, ELSET=Elset211

 ***WARNING: ELEMENT LABEL 211 HAS BEEN USED MORE THAN ONCE. ONLY THE LAST 
             DEFINITION IS CONSIDERED.
  *ELEMENT, TYPE=C3D8, ELSET=Elset212

 ***WARNING: ELEMENT LABEL 212 HAS BEEN USED MORE THAN ONCE. ONLY THE LAST 
             DEFINITION IS CONSIDERED.
  *ELEMENT, TYPE=C3D8, ELSET=Elset213

 ***WARNING: ELEMENT LABEL 213 HAS BEEN USED MORE THAN ONCE. ONLY THE LAST 
             DEFINITION IS CONSIDERED.
  *ELEMENT, TYPE=C3D8, ELSET=Elset214

 ***WARNING: ELEMENT LABEL 214 HAS BEEN USED MORE THAN ONCE. ONLY THE LAST 
             DEFINITION IS CONSIDERED.
  *ELEMENT, TYPE=C3D8, ELSET=Elset215

 ***WARNING: ELEMENT LABEL 215 HAS BEEN USED MORE THAN ONCE. ONLY THE LAST 
             DEFINITION IS CONSIDERED.
  *ELEMENT, TYPE=C3D8, ELSET=Elset216

 ***WARNING: ELEMENT LABEL 216 HAS BEEN USED MORE THAN ONCE. ONLY THE LAST 
             DEFINITION IS CONSIDERED.
  *ELEMENT, TYPE=C3D8, ELSET=Elset217

 ***WARNING: ELEMENT LABEL 217 HAS BEEN USED MORE THAN ONCE. ONLY THE LAST 
             DEFINITION IS CONSIDERED.
  *ELEMENT, TYPE=C3D8, ELSET=Elset218

 ***WARNING: ELEMENT LABEL 218 HAS BEEN USED MORE THAN ONCE. ONLY THE LAST 
             DEFINITION IS CONSIDERED.
  *ELEMENT, TYPE=C3D8, ELSET=Elset240

 ***WARNING: ELEMENT LABEL 240 HAS BEEN USED MORE THAN ONCE. ONLY THE LAST 
             DEFINITION IS CONSIDERED.
  *ELEMENT, TYPE=C3D8, ELSET=Elset241

 ***WARNING: ELEMENT LABEL 241 HAS BEEN USED MORE THAN ONCE. ONLY THE LAST 
             DEFINITION IS CONSIDERED.
  *ELEMENT, TYPE=C3D8, ELSET=Elset242

 ***WARNING: ELEMENT LABEL 242 HAS BEEN USED MORE THAN ONCE. ONLY THE LAST 
             DEFINITION IS CONSIDERED.
  *ELEMENT, TYPE=C3D8, ELSET=Elset243

 ***WARNING: ELEMENT LABEL 243 HAS BEEN USED MORE THAN ONCE. ONLY THE LAST 
             DEFINITION IS CONSIDERED.
  *ELEMENT, TYPE=C3D8, ELSET=Elset244

 ***WARNING: ELEMENT LABEL 244 HAS BEEN USED MORE THAN ONCE. ONLY THE LAST 
             DEFINITION IS CONSIDERED.
  *ELEMENT, TYPE=C3D8, ELSET=Elset245

 ***WARNING: ELEMENT LABEL 245 HAS BEEN USED MORE THAN ONCE. ONLY THE LAST 
             DEFINITION IS CONSIDERED.
  *ELEMENT, TYPE=C3D8, ELSET=Elset246

 ***WARNING: ELEMENT LABEL 246 HAS BEEN USED MORE THAN ONCE. ONLY THE LAST 
             DEFINITION IS CONSIDERED.
  *ELEMENT, TYPE=C3D8, ELSET=Elset247

 ***WARNING: ELEMENT LABEL 247 HAS BEEN USED MORE THAN ONCE. ONLY THE LAST 
             DEFINITION IS CONSIDERED.
  *ELEMENT, TYPE=C3D8, ELSET=Elset248

 ***WARNING: ELEMENT LABEL 248 HAS BEEN USED MORE THAN ONCE. ONLY THE LAST 
             DEFINITION IS CONSIDERED.
  *ELEMENT, TYPE=C3D8, ELSET=Elset249

 ***WARNING: ELEMENT LABEL 249 HAS BEEN USED MORE THAN ONCE. ONLY THE LAST 
             DEFINITION IS CONSIDERED.
  *ELEMENT, TYPE=C3D8, ELSET=Elset250

 ***WARNING: ELEMENT LABEL 250 HAS BEEN USED MORE THAN ONCE. ONLY THE LAST 
             DEFINITION IS CONSIDERED.
  *ELEMENT, TYPE=C3D8, ELSET=Elset251

 ***WARNING: ELEMENT LABEL 251 HAS BEEN USED MORE THAN ONCE. ONLY THE LAST 
             DEFINITION IS CONSIDERED.
  *ELEMENT, TYPE=C3D8, ELSET=Elset252

 ***WARNING: ELEMENT LABEL 252 HAS BEEN USED MORE THAN ONCE. ONLY THE LAST 
             DEFINITION IS CONSIDERED.
  *ELEMENT, TYPE=C3D8, ELSET=Elset272

 ***WARNING: ELEMENT LABEL 272 HAS BEEN USED MORE THAN ONCE. ONLY THE LAST 
             DEFINITION IS CONSIDERED.
  *ELEMENT, TYPE=C3D8, ELSET=Elset273

 ***WARNING: ELEMENT LABEL 273 HAS BEEN USED MORE THAN ONCE. ONLY THE LAST 
             DEFINITION IS CONSIDERED.
  *ELEMENT, TYPE=C3D8, ELSET=Elset274

 ***WARNING: ELEMENT LABEL 274 HAS BEEN USED MORE THAN ONCE. ONLY THE LAST 
             DEFINITION IS CONSIDERED.
  *ELEMENT, TYPE=C3D8, ELSET=Elset275

 ***WARNING: ELEMENT LABEL 275 HAS BEEN USED MORE THAN ONCE. ONLY THE LAST 
             DEFINITION IS CONSIDERED.
  *ELEMENT, TYPE=C3D8, ELSET=Elset276

 ***WARNING: ELEMENT LABEL 276 HAS BEEN USED MORE THAN ONCE. ONLY THE LAST 
             DEFINITION IS CONSIDERED.
  *ELEMENT, TYPE=C3D8, ELSET=Elset277

 ***WARNING: ELEMENT LABEL 277 HAS BEEN USED MORE THAN ONCE. ONLY THE LAST 
             DEFINITION IS CONSIDERED.
  *ELEMENT, TYPE=C3D8, ELSET=Elset278

 ***WARNING: ELEMENT LABEL 278 HAS BEEN USED MORE THAN ONCE. ONLY THE LAST 
             DEFINITION IS CONSIDERED.
  *ELEMENT, TYPE=C3D8, ELSET=Elset279

 ***WARNING: ELEMENT LABEL 279 HAS BEEN USED MORE THAN ONCE. ONLY THE LAST 
             DEFINITION IS CONSIDERED.
  *ELEMENT, TYPE=C3D8, ELSET=Elset280

 ***WARNING: ELEMENT LABEL 280 HAS BEEN USED MORE THAN ONCE. ONLY THE LAST 
             DEFINITION IS CONSIDERED.
  *ELEMENT, TYPE=C3D8, ELSET=Elset281

 ***WARNING: ELEMENT LABEL 281 HAS BEEN USED MORE THAN ONCE. ONLY THE LAST 
             DEFINITION IS CONSIDERED.
  *ELEMENT, TYPE=C3D8, ELSET=Elset282

 ***WARNING: ELEMENT LABEL 282 HAS BEEN USED MORE THAN ONCE. ONLY THE LAST 
             DEFINITION IS CONSIDERED.
  *ELEMENT, TYPE=C3D8, ELSET=Elset283

 ***WARNING: ELEMENT LABEL 283 HAS BEEN USED MORE THAN ONCE. ONLY THE LAST 
             DEFINITION IS CONSIDERED.
  *ELEMENT, TYPE=C3D8, ELSET=Elset284

 ***WARNING: ELEMENT LABEL 284 HAS BEEN USED MORE THAN ONCE. ONLY THE LAST 
             DEFINITION IS CONSIDERED.
  *ELEMENT, TYPE=C3D8, ELSET=Elset285

 ***WARNING: ELEMENT LABEL 285 HAS BEEN USED MORE THAN ONCE. ONLY THE LAST 
             DEFINITION IS CONSIDERED.
  *ELEMENT, TYPE=C3D8, ELSET=Elset286

 ***WARNING: ELEMENT LABEL 286 HAS BEEN USED MORE THAN ONCE. ONLY THE LAST 
             DEFINITION IS CONSIDERED.
  *ELEMENT, TYPE=C3D8, ELSET=Elset305

 ***WARNING: ELEMENT LABEL 305 HAS BEEN USED MORE THAN ONCE. ONLY THE LAST 
             DEFINITION IS CONSIDERED.
  *ELEMENT, TYPE=C3D8, ELSET=Elset306

 ***WARNING: ELEMENT LABEL 306 HAS BEEN USED MORE THAN ONCE. ONLY THE LAST 
             DEFINITION IS CONSIDERED.
  *ELEMENT, TYPE=C3D8, ELSET=Elset307

 ***WARNING: ELEMENT LABEL 307 HAS BEEN USED MORE THAN ONCE. ONLY THE LAST 
             DEFINITION IS CONSIDERED.
  *ELEMENT, TYPE=C3D8, ELSET=Elset308

 ***WARNING: ELEMENT LABEL 308 HAS BEEN USED MORE THAN ONCE. ONLY THE LAST 
             DEFINITION IS CONSIDERED.
  *ELEMENT, TYPE=C3D8, ELSET=Elset309

 ***WARNING: ELEMENT LABEL 309 HAS BEEN USED MORE THAN ONCE. ONLY THE LAST 
             DEFINITION IS CONSIDERED.
  *ELEMENT, TYPE=C3D8, ELSET=Elset310

 ***WARNING: ELEMENT LABEL 310 HAS BEEN USED MORE THAN ONCE. ONLY THE LAST 
             DEFINITION IS CONSIDERED.
  *ELEMENT, TYPE=C3D8, ELSET=Elset311

 ***WARNING: ELEMENT LABEL 311 HAS BEEN USED MORE THAN ONCE. ONLY THE LAST 
             DEFINITION IS CONSIDERED.
  *ELEMENT, TYPE=C3D8, ELSET=Elset312

 ***WARNING: ELEMENT LABEL 312 HAS BEEN USED MORE THAN ONCE. ONLY THE LAST 
             DEFINITION IS CONSIDERED.
  *ELEMENT, TYPE=C3D8, ELSET=Elset313

 ***WARNING: ELEMENT LABEL 313 HAS BEEN USED MORE THAN ONCE. ONLY THE LAST 
             DEFINITION IS CONSIDERED.
  *ELEMENT, TYPE=C3D8, ELSET=Elset314

 ***WARNING: ELEMENT LABEL 314 HAS BEEN USED MORE THAN ONCE. ONLY THE LAST 
             DEFINITION IS CONSIDERED.
  *ELEMENT, TYPE=C3D8, ELSET=Elset315

 ***WARNING: ELEMENT LABEL 315 HAS BEEN USED MORE THAN ONCE. ONLY THE LAST 
             DEFINITION IS CONSIDERED.
  *ELEMENT, TYPE=C3D8, ELSET=Elset316

 ***WARNING: ELEMENT LABEL 316 HAS BEEN USED MORE THAN ONCE. ONLY THE LAST 
             DEFINITION IS CONSIDERED.
  *ELEMENT, TYPE=C3D8, ELSET=Elset317

 ***WARNING: ELEMENT LABEL 317 HAS BEEN USED MORE THAN ONCE. ONLY THE LAST 
             DEFINITION IS CONSIDERED.
  *ELEMENT, TYPE=C3D8, ELSET=Elset318

 ***WARNING: ELEMENT LABEL 318 HAS BEEN USED MORE THAN ONCE. ONLY THE LAST 
             DEFINITION IS CONSIDERED.
  *ELEMENT, TYPE=C3D8, ELSET=Elset319

 ***WARNING: ELEMENT LABEL 319 HAS BEEN USED MORE THAN ONCE. ONLY THE LAST 
             DEFINITION IS CONSIDERED.
  *ELEMENT, TYPE=C3D8, ELSET=Elset320

 ***WARNING: ELEMENT LABEL 320 HAS BEEN USED MORE THAN ONCE. ONLY THE LAST 
             DEFINITION IS CONSIDERED.
  *ELEMENT, TYPE=C3D8, ELSET=Elset337

 ***WARNING: ELEMENT LABEL 337 HAS BEEN USED MORE THAN ONCE. ONLY THE LAST 
             DEFINITION IS CONSIDERED.
  *ELEMENT, TYPE=C3D8, ELSET=Elset338

 ***WARNING: ELEMENT LABEL 338 HAS BEEN USED MORE THAN ONCE. ONLY THE LAST 
             DEFINITION IS CONSIDERED.
  *ELEMENT, TYPE=C3D8, ELSET=Elset339

 ***WARNING: ELEMENT LABEL 339 HAS BEEN USED MORE THAN ONCE. ONLY THE LAST 
             DEFINITION IS CONSIDERED.
  *ELEMENT, TYPE=C3D8, ELSET=Elset340

 ***WARNING: ELEMENT LABEL 340 HAS BEEN USED MORE THAN ONCE. ONLY THE LAST 
             DEFINITION IS CONSIDERED.
  *ELEMENT, TYPE=C3D8, ELSET=Elset341

 ***WARNING: ELEMENT LABEL 341 HAS BEEN USED MORE THAN ONCE. ONLY THE LAST 
             DEFINITION IS CONSIDERED.
  *ELEMENT, TYPE=C3D8, ELSET=Elset342

 ***WARNING: ELEMENT LABEL 342 HAS BEEN USED MORE THAN ONCE. ONLY THE LAST 
             DEFINITION IS CONSIDERED.
  *ELEMENT, TYPE=C3D8, ELSET=Elset343

 ***WARNING: ELEMENT LABEL 343 HAS BEEN USED MORE THAN ONCE. ONLY THE LAST 
             DEFINITION IS CONSIDERED.
  *ELEMENT, TYPE=C3D8, ELSET=Elset344

 ***WARNING: ELEMENT LABEL 344 HAS BEEN USED MORE THAN ONCE. ONLY THE LAST 
             DEFINITION IS CONSIDERED.
  *ELEMENT, TYPE=C3D8, ELSET=Elset345

 ***WARNING: ELEMENT LABEL 345 HAS BEEN USED MORE THAN ONCE. ONLY THE LAST 
             DEFINITION IS CONSIDERED.
  *ELEMENT, TYPE=C3D8, ELSET=Elset346

 ***WARNING: ELEMENT LABEL 346 HAS BEEN USED MORE THAN ONCE. ONLY THE LAST 
             DEFINITION IS CONSIDERED.
  *ELEMENT, TYPE=C3D8, ELSET=Elset347

 ***WARNING: ELEMENT LABEL 347 HAS BEEN USED MORE THAN ONCE. ONLY THE LAST 
             DEFINITION IS CONSIDERED.
  *ELEMENT, TYPE=C3D8, ELSET=Elset348

 ***WARNING: ELEMENT LABEL 348 HAS BEEN USED MORE THAN ONCE. ONLY THE LAST 
             DEFINITION IS CONSIDERED.
  *ELEMENT, TYPE=C3D8, ELSET=Elset349

 ***WARNING: ELEMENT LABEL 349 HAS BEEN USED MORE THAN ONCE. ONLY THE LAST 
             DEFINITION IS CONSIDERED.
  *ELEMENT, TYPE=C3D8, ELSET=Elset350

 ***WARNING: ELEMENT LABEL 350 HAS BEEN USED MORE THAN ONCE. ONLY THE LAST 
             DEFINITION IS CONSIDERED.
  *ELEMENT, TYPE=C3D8, ELSET=Elset351

 ***WARNING: ELEMENT LABEL 351 HAS BEEN USED MORE THAN ONCE. ONLY THE LAST 
             DEFINITION IS CONSIDERED.
  *ELEMENT, TYPE=C3D8, ELSET=Elset352

 ***WARNING: ELEMENT LABEL 352 HAS BEEN USED MORE THAN ONCE. ONLY THE LAST 
             DEFINITION IS CONSIDERED.
  *ELEMENT, TYPE=C3D8, ELSET=Elset353

 ***WARNING: ELEMENT LABEL 353 HAS BEEN USED MORE THAN ONCE. ONLY THE LAST 
             DEFINITION IS CONSIDERED.
  *ELEMENT, TYPE=C3D8, ELSET=Elset354

 ***WARNING: ELEMENT LABEL 354 HAS BEEN USED MORE THAN ONCE. ONLY THE LAST 
             DEFINITION IS CONSIDERED.
  *ELEMENT, TYPE=C3D8, ELSET=Elset370

 ***WARNING: ELEMENT LABEL 370 HAS BEEN USED MORE THAN ONCE. ONLY THE LAST 
             DEFINITION IS CONSIDERED.
  *ELEMENT, TYPE=C3D8, ELSET=Elset371

 ***WARNING: ELEMENT LABEL 371 HAS BEEN USED MORE THAN ONCE. ONLY THE LAST 
             DEFINITION IS CONSIDERED.
  *ELEMENT, TYPE=C3D8, ELSET=Elset372

 ***WARNING: ELEMENT LABEL 372 HAS BEEN USED MORE THAN ONCE. ONLY THE LAST 
             DEFINITION IS CONSIDERED.
  *ELEMENT, TYPE=C3D8, ELSET=Elset373

 ***WARNING: ELEMENT LABEL 373 HAS BEEN USED MORE THAN ONCE. ONLY THE LAST 
             DEFINITION IS CONSIDERED.
  *ELEMENT, TYPE=C3D8, ELSET=Elset374

 ***WARNING: ELEMENT LABEL 374 HAS BEEN USED MORE THAN ONCE. ONLY THE LAST 
             DEFINITION IS CONSIDERED.
  *ELEMENT, TYPE=C3D8, ELSET=Elset375

 ***WARNING: ELEMENT LABEL 375 HAS BEEN USED MORE THAN ONCE. ONLY THE LAST 
             DEFINITION IS CONSIDERED.
  *ELEMENT, TYPE=C3D8, ELSET=Elset376

 ***WARNING: ELEMENT LABEL 376 HAS BEEN USED MORE THAN ONCE. ONLY THE LAST 
             DEFINITION IS CONSIDERED.
  *ELEMENT, TYPE=C3D8, ELSET=Elset377

 ***WARNING: ELEMENT LABEL 377 HAS BEEN USED MORE THAN ONCE. ONLY THE LAST 
             DEFINITION IS CONSIDERED.
  *ELEMENT, TYPE=C3D8, ELSET=Elset378

 ***WARNING: ELEMENT LABEL 378 HAS BEEN USED MORE THAN ONCE. ONLY THE LAST 
             DEFINITION IS CONSIDERED.
  *ELEMENT, TYPE=C3D8, ELSET=Elset379

 ***WARNING: ELEMENT LABEL 379 HAS BEEN USED MORE THAN ONCE. ONLY THE LAST 
             DEFINITION IS CONSIDERED.
  *ELEMENT, TYPE=C3D8, ELSET=Elset380

 ***WARNING: ELEMENT LABEL 380 HAS BEEN USED MORE THAN ONCE. ONLY THE LAST 
             DEFINITION IS CONSIDERED.
  *ELEMENT, TYPE=C3D8, ELSET=Elset381

 ***WARNING: ELEMENT LABEL 381 HAS BEEN USED MORE THAN ONCE. ONLY THE LAST 
             DEFINITION IS CONSIDERED.
  *ELEMENT, TYPE=C3D8, ELSET=Elset382

 ***WARNING: ELEMENT LABEL 382 HAS BEEN USED MORE THAN ONCE. ONLY THE LAST 
             DEFINITION IS CONSIDERED.
  *ELEMENT, TYPE=C3D8, ELSET=Elset383

 ***WARNING: ELEMENT LABEL 383 HAS BEEN USED MORE THAN ONCE. ONLY THE LAST 
             DEFINITION IS CONSIDERED.
  *ELEMENT, TYPE=C3D8, ELSET=Elset384

 ***WARNING: ELEMENT LABEL 384 HAS BEEN USED MORE THAN ONCE. ONLY THE LAST 
             DEFINITION IS CONSIDERED.
  *ELEMENT, TYPE=C3D8, ELSET=Elset385

 ***WARNING: ELEMENT LABEL 385 HAS BEEN USED MORE THAN ONCE. ONLY THE LAST 
             DEFINITION IS CONSIDERED.
  *ELEMENT, TYPE=C3D8, ELSET=Elset386

 ***WARNING: ELEMENT LABEL 386 HAS BEEN USED MORE THAN ONCE. ONLY THE LAST 
             DEFINITION IS CONSIDERED.
  *ELEMENT, TYPE=C3D8, ELSET=Elset387

 ***WARNING: ELEMENT LABEL 387 HAS BEEN USED MORE THAN ONCE. ONLY THE LAST 
             DEFINITION IS CONSIDERED.
  *ELEMENT, TYPE=C3D8, ELSET=Elset388

 ***WARNING: ELEMENT LABEL 388 HAS BEEN USED MORE THAN ONCE. ONLY THE LAST 
             DEFINITION IS CONSIDERED.
  *ELEMENT, TYPE=C3D8, ELSET=Elset403

 ***WARNING: ELEMENT LABEL 403 HAS BEEN USED MORE THAN ONCE. ONLY THE LAST 
             DEFINITION IS CONSIDERED.
  *ELEMENT, TYPE=C3D8, ELSET=Elset404

 ***WARNING: ELEMENT LABEL 404 HAS BEEN USED MORE THAN ONCE. ONLY THE LAST 
             DEFINITION IS CONSIDERED.
  *ELEMENT, TYPE=C3D8, ELSET=Elset405

 ***WARNING: ELEMENT LABEL 405 HAS BEEN USED MORE THAN ONCE. ONLY THE LAST 
             DEFINITION IS CONSIDERED.
  *ELEMENT, TYPE=C3D8, ELSET=Elset406

 ***WARNING: ELEMENT LABEL 406 HAS BEEN USED MORE THAN ONCE. ONLY THE LAST 
             DEFINITION IS CONSIDERED.
  *ELEMENT, TYPE=C3D8, ELSET=Elset407

 ***WARNING: ELEMENT LABEL 407 HAS BEEN USED MORE THAN ONCE. ONLY THE LAST 
             DEFINITION IS CONSIDERED.
  *ELEMENT, TYPE=C3D8, ELSET=Elset408

 ***WARNING: ELEMENT LABEL 408 HAS BEEN USED MORE THAN ONCE. ONLY THE LAST 
             DEFINITION IS CONSIDERED.
  *ELEMENT, TYPE=C3D8, ELSET=Elset409

 ***WARNING: ELEMENT LABEL 409 HAS BEEN USED MORE THAN ONCE. ONLY THE LAST 
             DEFINITION IS CONSIDERED.
  *ELEMENT, TYPE=C3D8, ELSET=Elset410

 ***WARNING: ELEMENT LABEL 410 HAS BEEN USED MORE THAN ONCE. ONLY THE LAST 
             DEFINITION IS CONSIDERED.
  *ELEMENT, TYPE=C3D8, ELSET=Elset411

 ***WARNING: ELEMENT LABEL 411 HAS BEEN USED MORE THAN ONCE. ONLY THE LAST 
             DEFINITION IS CONSIDERED.
  *ELEMENT, TYPE=C3D8, ELSET=Elset412

 ***WARNING: ELEMENT LABEL 412 HAS BEEN USED MORE THAN ONCE. ONLY THE LAST 
             DEFINITION IS CONSIDERED.
  *ELEMENT, TYPE=C3D8, ELSET=Elset413

 ***WARNING: ELEMENT LABEL 413 HAS BEEN USED MORE THAN ONCE. ONLY THE LAST 
             DEFINITION IS CONSIDERED.
  *ELEMENT, TYPE=C3D8, ELSET=Elset414

 ***WARNING: ELEMENT LABEL 414 HAS BEEN USED MORE THAN ONCE. ONLY THE LAST 
             DEFINITION IS CONSIDERED.
  *ELEMENT, TYPE=C3D8, ELSET=Elset415

 ***WARNING: ELEMENT LABEL 415 HAS BEEN USED MORE THAN ONCE. ONLY THE LAST 
             DEFINITION IS CONSIDERED.
  *ELEMENT, TYPE=C3D8, ELSET=Elset416

 ***WARNING: ELEMENT LABEL 416 HAS BEEN USED MORE THAN ONCE. ONLY THE LAST 
             DEFINITION IS CONSIDERED.
  *ELEMENT, TYPE=C3D8, ELSET=Elset417

 ***WARNING: ELEMENT LABEL 417 HAS BEEN USED MORE THAN ONCE. ONLY THE LAST 
             DEFINITION IS CONSIDERED.
  *ELEMENT, TYPE=C3D8, ELSET=Elset418

 ***WARNING: ELEMENT LABEL 418 HAS BEEN USED MORE THAN ONCE. ONLY THE LAST 
             DEFINITION IS CONSIDERED.
  *ELEMENT, TYPE=C3D8, ELSET=Elset419

 ***WARNING: ELEMENT LABEL 419 HAS BEEN USED MORE THAN ONCE. ONLY THE LAST 
             DEFINITION IS CONSIDERED.
  *ELEMENT, TYPE=C3D8, ELSET=Elset420

 ***WARNING: ELEMENT LABEL 420 HAS BEEN USED MORE THAN ONCE. ONLY THE LAST 
             DEFINITION IS CONSIDERED.
  *ELEMENT, TYPE=C3D8, ELSET=Elset421

 ***WARNING: ELEMENT LABEL 421 HAS BEEN USED MORE THAN ONCE. ONLY THE LAST 
             DEFINITION IS CONSIDERED.
  *ELEMENT, TYPE=C3D8, ELSET=Elset435

 ***WARNING: ELEMENT LABEL 435 HAS BEEN USED MORE THAN ONCE. ONLY THE LAST 
             DEFINITION IS CONSIDERED.
  *ELEMENT, TYPE=C3D8, ELSET=Elset436

 ***WARNING: ELEMENT LABEL 436 HAS BEEN USED MORE THAN ONCE. ONLY THE LAST 
             DEFINITION IS CONSIDERED.
  *ELEMENT, TYPE=C3D8, ELSET=Elset437

 ***WARNING: ELEMENT LABEL 437 HAS BEEN USED MORE THAN ONCE. ONLY THE LAST 
             DEFINITION IS CONSIDERED.
  *ELEMENT, TYPE=C3D8, ELSET=Elset438

 ***WARNING: ELEMENT LABEL 438 HAS BEEN USED MORE THAN ONCE. ONLY THE LAST 
             DEFINITION IS CONSIDERED.
  *ELEMENT, TYPE=C3D8, ELSET=Elset439

 ***WARNING: ELEMENT LABEL 439 HAS BEEN USED MORE THAN ONCE. ONLY THE LAST 
             DEFINITION IS CONSIDERED.
  *ELEMENT, TYPE=C3D8, ELSET=Elset440

 ***WARNING: ELEMENT LABEL 440 HAS BEEN USED MORE THAN ONCE. ONLY THE LAST 
             DEFINITION IS CONSIDERED.
  *ELEMENT, TYPE=C3D8, ELSET=Elset441

 ***WARNING: ELEMENT LABEL 441 HAS BEEN USED MORE THAN ONCE. ONLY THE LAST 
             DEFINITION IS CONSIDERED.
  *ELEMENT, TYPE=C3D8, ELSET=Elset442

 ***WARNING: ELEMENT LABEL 442 HAS BEEN USED MORE THAN ONCE. ONLY THE LAST 
             DEFINITION IS CONSIDERED.
  *ELEMENT, TYPE=C3D8, ELSET=Elset443

 ***WARNING: ELEMENT LABEL 443 HAS BEEN USED MORE THAN ONCE. ONLY THE LAST 
             DEFINITION IS CONSIDERED.
  *ELEMENT, TYPE=C3D8, ELSET=Elset444

 ***WARNING: ELEMENT LABEL 444 HAS BEEN USED MORE THAN ONCE. ONLY THE LAST 
             DEFINITION IS CONSIDERED.
  *ELEMENT, TYPE=C3D8, ELSET=Elset445

 ***WARNING: ELEMENT LABEL 445 HAS BEEN USED MORE THAN ONCE. ONLY THE LAST 
             DEFINITION IS CONSIDERED.
  *ELEMENT, TYPE=C3D8, ELSET=Elset446

 ***WARNING: ELEMENT LABEL 446 HAS BEEN USED MORE THAN ONCE. ONLY THE LAST 
             DEFINITION IS CONSIDERED.
  *ELEMENT, TYPE=C3D8, ELSET=Elset447

 ***WARNING: ELEMENT LABEL 447 HAS BEEN USED MORE THAN ONCE. ONLY THE LAST 
             DEFINITION IS CONSIDERED.
  *ELEMENT, TYPE=C3D8, ELSET=Elset448

 ***WARNING: ELEMENT LABEL 448 HAS BEEN USED MORE THAN ONCE. ONLY THE LAST 
             DEFINITION IS CONSIDERED.
  *ELEMENT, TYPE=C3D8, ELSET=Elset449

 ***WARNING: ELEMENT LABEL 449 HAS BEEN USED MORE THAN ONCE. ONLY THE LAST 
             DEFINITION IS CONSIDERED.
  *ELEMENT, TYPE=C3D8, ELSET=Elset450

 ***WARNING: ELEMENT LABEL 450 HAS BEEN USED MORE THAN ONCE. ONLY THE LAST 
             DEFINITION IS CONSIDERED.
  *ELEMENT, TYPE=C3D8, ELSET=Elset451

 ***WARNING: ELEMENT LABEL 451 HAS BEEN USED MORE THAN ONCE. ONLY THE LAST 
             DEFINITION IS CONSIDERED.
  *ELEMENT, TYPE=C3D8, ELSET=Elset452

 ***WARNING: ELEMENT LABEL 452 HAS BEEN USED MORE THAN ONCE. ONLY THE LAST 
             DEFINITION IS CONSIDERED.
  *ELEMENT, TYPE=C3D8, ELSET=Elset453

 ***WARNING: ELEMENT LABEL 453 HAS BEEN USED MORE THAN ONCE. ONLY THE LAST 
             DEFINITION IS CONSIDERED.
  *ELEMENT, TYPE=C3D8, ELSET=Elset454

 ***WARNING: ELEMENT LABEL 454 HAS BEEN USED MORE THAN ONCE. ONLY THE LAST 
             DEFINITION IS CONSIDERED.
  *ELEMENT, TYPE=C3D8, ELSET=Elset455

 ***WARNING: ELEMENT LABEL 455 HAS BEEN USED MORE THAN ONCE. ONLY THE LAST 
             DEFINITION IS CONSIDERED.
  *ELEMENT, TYPE=C3D8, ELSET=Elset468

 ***WARNING: ELEMENT LABEL 468 HAS BEEN USED MORE THAN ONCE. ONLY THE LAST 
             DEFINITION IS CONSIDERED.
  *ELEMENT, TYPE=C3D8, ELSET=Elset469

 ***WARNING: ELEMENT LABEL 469 HAS BEEN USED MORE THAN ONCE. ONLY THE LAST 
             DEFINITION IS CONSIDERED.
  *ELEMENT, TYPE=C3D8, ELSET=Elset470

 ***WARNING: ELEMENT LABEL 470 HAS BEEN USED MORE THAN ONCE. ONLY THE LAST 
             DEFINITION IS CONSIDERED.
  *ELEMENT, TYPE=C3D8, ELSET=Elset471

 ***WARNING: ELEMENT LABEL 471 HAS BEEN USED MORE THAN ONCE. ONLY THE LAST 
             DEFINITION IS CONSIDERED.
  *ELEMENT, TYPE=C3D8, ELSET=Elset472

 ***WARNING: ELEMENT LABEL 472 HAS BEEN USED MORE THAN ONCE. ONLY THE LAST 
             DEFINITION IS CONSIDERED.
  *ELEMENT, TYPE=C3D8, ELSET=Elset473

 ***WARNING: ELEMENT LABEL 473 HAS BEEN USED MORE THAN ONCE. ONLY THE LAST 
             DEFINITION IS CONSIDERED.
  *ELEMENT, TYPE=C3D8, ELSET=Elset474

 ***WARNING: ELEMENT LABEL 474 HAS BEEN USED MORE THAN ONCE. ONLY THE LAST 
             DEFINITION IS CONSIDERED.
  *ELEMENT, TYPE=C3D8, ELSET=Elset475

 ***WARNING: ELEMENT LABEL 475 HAS BEEN USED MORE THAN ONCE. ONLY THE LAST 
             DEFINITION IS CONSIDERED.
  *ELEMENT, TYPE=C3D8, ELSET=Elset476

 ***WARNING: ELEMENT LABEL 476 HAS BEEN USED MORE THAN ONCE. ONLY THE LAST 
             DEFINITION IS CONSIDERED.
  *ELEMENT, TYPE=C3D8, ELSET=Elset477

 ***WARNING: ELEMENT LABEL 477 HAS BEEN USED MORE THAN ONCE. ONLY THE LAST 
             DEFINITION IS CONSIDERED.
  *ELEMENT, TYPE=C3D8, ELSET=Elset478

 ***WARNING: ELEMENT LABEL 478 HAS BEEN USED MORE THAN ONCE. ONLY THE LAST 
             DEFINITION IS CONSIDERED.
  *ELEMENT, TYPE=C3D8, ELSET=Elset479

 ***WARNING: ELEMENT LABEL 479 HAS BEEN USED MORE THAN ONCE. ONLY THE LAST 
             DEFINITION IS CONSIDERED.
  *ELEMENT, TYPE=C3D8, ELSET=Elset480

 ***WARNING: ELEMENT LABEL 480 HAS BEEN USED MORE THAN ONCE. ONLY THE LAST 
             DEFINITION IS CONSIDERED.
  *ELEMENT, TYPE=C3D8, ELSET=Elset481

 ***WARNING: ELEMENT LABEL 481 HAS BEEN USED MORE THAN ONCE. ONLY THE LAST 
             DEFINITION IS CONSIDERED.
  *ELEMENT, TYPE=C3D8, ELSET=Elset482

 ***WARNING: ELEMENT LABEL 482 HAS BEEN USED MORE THAN ONCE. ONLY THE LAST 
             DEFINITION IS CONSIDERED.
  *ELEMENT, TYPE=C3D8, ELSET=Elset483

 ***WARNING: ELEMENT LABEL 483 HAS BEEN USED MORE THAN ONCE. ONLY THE LAST 
             DEFINITION IS CONSIDERED.
  *ELEMENT, TYPE=C3D8, ELSET=Elset484

 ***WARNING: ELEMENT LABEL 484 HAS BEEN USED MORE THAN ONCE. ONLY THE LAST 
             DEFINITION IS CONSIDERED.
  *ELEMENT, TYPE=C3D8, ELSET=Elset485

 ***WARNING: ELEMENT LABEL 485 HAS BEEN USED MORE THAN ONCE. ONLY THE LAST 
             DEFINITION IS CONSIDERED.
  *ELEMENT, TYPE=C3D8, ELSET=Elset486

 ***WARNING: ELEMENT LABEL 486 HAS BEEN USED MORE THAN ONCE. ONLY THE LAST 
             DEFINITION IS CONSIDERED.
  *ELEMENT, TYPE=C3D8, ELSET=Elset487

 ***WARNING: ELEMENT LABEL 487 HAS BEEN USED MORE THAN ONCE. ONLY THE LAST 
             DEFINITION IS CONSIDERED.
  *ELEMENT, TYPE=C3D8, ELSET=Elset488

 ***WARNING: ELEMENT LABEL 488 HAS BEEN USED MORE THAN ONCE. ONLY THE LAST 
             DEFINITION IS CONSIDERED.
  *ELEMENT, TYPE=C3D8, ELSET=Elset501

 ***WARNING: ELEMENT LABEL 501 HAS BEEN USED MORE THAN ONCE. ONLY THE LAST 
             DEFINITION IS CONSIDERED.
  *ELEMENT, TYPE=C3D8, ELSET=Elset502

 ***WARNING: ELEMENT LABEL 502 HAS BEEN USED MORE THAN ONCE. ONLY THE LAST 
             DEFINITION IS CONSIDERED.
  *ELEMENT, TYPE=C3D8, ELSET=Elset503

 ***WARNING: ELEMENT LABEL 503 HAS BEEN USED MORE THAN ONCE. ONLY THE LAST 
             DEFINITION IS CONSIDERED.
  *ELEMENT, TYPE=C3D8, ELSET=Elset504

 ***WARNING: ELEMENT LABEL 504 HAS BEEN USED MORE THAN ONCE. ONLY THE LAST 
             DEFINITION IS CONSIDERED.
  *ELEMENT, TYPE=C3D8, ELSET=Elset505

 ***WARNING: ELEMENT LABEL 505 HAS BEEN USED MORE THAN ONCE. ONLY THE LAST 
             DEFINITION IS CONSIDERED.
  *ELEMENT, TYPE=C3D8, ELSET=Elset506

 ***WARNING: ELEMENT LABEL 506 HAS BEEN USED MORE THAN ONCE. ONLY THE LAST 
             DEFINITION IS CONSIDERED.
  *ELEMENT, TYPE=C3D8, ELSET=Elset507

 ***WARNING: ELEMENT LABEL 507 HAS BEEN USED MORE THAN ONCE. ONLY THE LAST 
             DEFINITION IS CONSIDERED.
  *ELEMENT, TYPE=C3D8, ELSET=Elset508

 ***WARNING: ELEMENT LABEL 508 HAS BEEN USED MORE THAN ONCE. ONLY THE LAST 
             DEFINITION IS CONSIDERED.
  *ELEMENT, TYPE=C3D8, ELSET=Elset509

 ***WARNING: ELEMENT LABEL 509 HAS BEEN USED MORE THAN ONCE. ONLY THE LAST 
             DEFINITION IS CONSIDERED.
  *ELEMENT, TYPE=C3D8, ELSET=Elset510

 ***WARNING: ELEMENT LABEL 510 HAS BEEN USED MORE THAN ONCE. ONLY THE LAST 
             DEFINITION IS CONSIDERED.
  *ELEMENT, TYPE=C3D8, ELSET=Elset511

 ***WARNING: ELEMENT LABEL 511 HAS BEEN USED MORE THAN ONCE. ONLY THE LAST 
             DEFINITION IS CONSIDERED.
  *ELEMENT, TYPE=C3D8, ELSET=Elset512

 ***WARNING: ELEMENT LABEL 512 HAS BEEN USED MORE THAN ONCE. ONLY THE LAST 
             DEFINITION IS CONSIDERED.
  *ELEMENT, TYPE=C3D8, ELSET=Elset513

 ***WARNING: ELEMENT LABEL 513 HAS BEEN USED MORE THAN ONCE. ONLY THE LAST 
             DEFINITION IS CONSIDERED.
  *ELEMENT, TYPE=C3D8, ELSET=Elset514

 ***WARNING: ELEMENT LABEL 514 HAS BEEN USED MORE THAN ONCE. ONLY THE LAST 
             DEFINITION IS CONSIDERED.
  *ELEMENT, TYPE=C3D8, ELSET=Elset515

 ***WARNING: ELEMENT LABEL 515 HAS BEEN USED MORE THAN ONCE. ONLY THE LAST 
             DEFINITION IS CONSIDERED.
  *ELEMENT, TYPE=C3D8, ELSET=Elset516

 ***WARNING: ELEMENT LABEL 516 HAS BEEN USED MORE THAN ONCE. ONLY THE LAST 
             DEFINITION IS CONSIDERED.
  *ELEMENT, TYPE=C3D8, ELSET=Elset517

 ***WARNING: ELEMENT LABEL 517 HAS BEEN USED MORE THAN ONCE. ONLY THE LAST 
             DEFINITION IS CONSIDERED.
  *ELEMENT, TYPE=C3D8, ELSET=Elset518

 ***WARNING: ELEMENT LABEL 518 HAS BEEN USED MORE THAN ONCE. ONLY THE LAST 
             DEFINITION IS CONSIDERED.
  *ELEMENT, TYPE=C3D8, ELSET=Elset519

 ***WARNING: ELEMENT LABEL 519 HAS BEEN USED MORE THAN ONCE. ONLY THE LAST 
             DEFINITION IS CONSIDERED.
  *ELEMENT, TYPE=C3D8, ELSET=Elset520

 ***WARNING: ELEMENT LABEL 520 HAS BEEN USED MORE THAN ONCE. ONLY THE LAST 
             DEFINITION IS CONSIDERED.
  *ELEMENT, TYPE=C3D8, ELSET=Elset521

 ***WARNING: ELEMENT LABEL 521 HAS BEEN USED MORE THAN ONCE. ONLY THE LAST 
             DEFINITION IS CONSIDERED.
  *ELEMENT, TYPE=C3D8, ELSET=Elset522

 ***WARNING: ELEMENT LABEL 522 HAS BEEN USED MORE THAN ONCE. ONLY THE LAST 
             DEFINITION IS CONSIDERED.
  *ELEMENT, TYPE=C3D8, ELSET=Elset534

 ***WARNING: ELEMENT LABEL 534 HAS BEEN USED MORE THAN ONCE. ONLY THE LAST 
             DEFINITION IS CONSIDERED.
  *ELEMENT, TYPE=C3D8, ELSET=Elset535

 ***WARNING: ELEMENT LABEL 535 HAS BEEN USED MORE THAN ONCE. ONLY THE LAST 
             DEFINITION IS CONSIDERED.
  *ELEMENT, TYPE=C3D8, ELSET=Elset536

 ***WARNING: ELEMENT LABEL 536 HAS BEEN USED MORE THAN ONCE. ONLY THE LAST 
             DEFINITION IS CONSIDERED.
  *ELEMENT, TYPE=C3D8, ELSET=Elset537

 ***WARNING: ELEMENT LABEL 537 HAS BEEN USED MORE THAN ONCE. ONLY THE LAST 
             DEFINITION IS CONSIDERED.
  *ELEMENT, TYPE=C3D8, ELSET=Elset538

 ***WARNING: ELEMENT LABEL 538 HAS BEEN USED MORE THAN ONCE. ONLY THE LAST 
             DEFINITION IS CONSIDERED.
  *ELEMENT, TYPE=C3D8, ELSET=Elset539

 ***WARNING: ELEMENT LABEL 539 HAS BEEN USED MORE THAN ONCE. ONLY THE LAST 
             DEFINITION IS CONSIDERED.
  *ELEMENT, TYPE=C3D8, ELSET=Elset540

 ***WARNING: ELEMENT LABEL 540 HAS BEEN USED MORE THAN ONCE. ONLY THE LAST 
             DEFINITION IS CONSIDERED.
  *ELEMENT, TYPE=C3D8, ELSET=Elset541

 ***WARNING: ELEMENT LABEL 541 HAS BEEN USED MORE THAN ONCE. ONLY THE LAST 
             DEFINITION IS CONSIDERED.
  *ELEMENT, TYPE=C3D8, ELSET=Elset542

 ***WARNING: ELEMENT LABEL 542 HAS BEEN USED MORE THAN ONCE. ONLY THE LAST 
             DEFINITION IS CONSIDERED.
  *ELEMENT, TYPE=C3D8, ELSET=Elset543

 ***WARNING: ELEMENT LABEL 543 HAS BEEN USED MORE THAN ONCE. ONLY THE LAST 
             DEFINITION IS CONSIDERED.
  *ELEMENT, TYPE=C3D8, ELSET=Elset544

 ***WARNING: ELEMENT LABEL 544 HAS BEEN USED MORE THAN ONCE. ONLY THE LAST 
             DEFINITION IS CONSIDERED.
  *ELEMENT, TYPE=C3D8, ELSET=Elset545

 ***WARNING: ELEMENT LABEL 545 HAS BEEN USED MORE THAN ONCE. ONLY THE LAST 
             DEFINITION IS CONSIDERED.
  *ELEMENT, TYPE=C3D8, ELSET=Elset546

 ***WARNING: ELEMENT LABEL 546 HAS BEEN USED MORE THAN ONCE. ONLY THE LAST 
             DEFINITION IS CONSIDERED.
  *ELEMENT, TYPE=C3D8, ELSET=Elset547

 ***WARNING: ELEMENT LABEL 547 HAS BEEN USED MORE THAN ONCE. ONLY THE LAST 
             DEFINITION IS CONSIDERED.
  *ELEMENT, TYPE=C3D8, ELSET=Elset548

 ***WARNING: ELEMENT LABEL 548 HAS BEEN USED MORE THAN ONCE. ONLY THE LAST 
             DEFINITION IS CONSIDERED.
  *ELEMENT, TYPE=C3D8, ELSET=Elset549

 ***WARNING: ELEMENT LABEL 549 HAS BEEN USED MORE THAN ONCE. ONLY THE LAST 
             DEFINITION IS CONSIDERED.
  *ELEMENT, TYPE=C3D8, ELSET=Elset550

 ***WARNING: ELEMENT LABEL 550 HAS BEEN USED MORE THAN ONCE. ONLY THE LAST 
             DEFINITION IS CONSIDERED.
  *ELEMENT, TYPE=C3D8, ELSET=Elset551

 ***WARNING: ELEMENT LABEL 551 HAS BEEN USED MORE THAN ONCE. ONLY THE LAST 
             DEFINITION IS CONSIDERED.
  *ELEMENT, TYPE=C3D8, ELSET=Elset552

 ***WARNING: ELEMENT LABEL 552 HAS BEEN USED MORE THAN ONCE. ONLY THE LAST 
             DEFINITION IS CONSIDERED.
  *ELEMENT, TYPE=C3D8, ELSET=Elset553

 ***WARNING: ELEMENT LABEL 553 HAS BEEN USED MORE THAN ONCE. ONLY THE LAST 
             DEFINITION IS CONSIDERED.
  *ELEMENT, TYPE=C3D8, ELSET=Elset554

 ***WARNING: ELEMENT LABEL 554 HAS BEEN USED MORE THAN ONCE. ONLY THE LAST 
             DEFINITION IS CONSIDERED.
  *ELEMENT, TYPE=C3D8, ELSET=Elset555

 ***WARNING: ELEMENT LABEL 555 HAS BEEN USED MORE THAN ONCE. ONLY THE LAST 
             DEFINITION IS CONSIDERED.
  *ELEMENT, TYPE=C3D8, ELSET=Elset567

 ***WARNING: ELEMENT LABEL 567 HAS BEEN USED MORE THAN ONCE. ONLY THE LAST 
             DEFINITION IS CONSIDERED.
  *ELEMENT, TYPE=C3D8, ELSET=Elset568

 ***WARNING: ELEMENT LABEL 568 HAS BEEN USED MORE THAN ONCE. ONLY THE LAST 
             DEFINITION IS CONSIDERED.
  *ELEMENT, TYPE=C3D8, ELSET=Elset569

 ***WARNING: ELEMENT LABEL 569 HAS BEEN USED MORE THAN ONCE. ONLY THE LAST 
             DEFINITION IS CONSIDERED.
  *ELEMENT, TYPE=C3D8, ELSET=Elset570

 ***WARNING: ELEMENT LABEL 570 HAS BEEN USED MORE THAN ONCE. ONLY THE LAST 
             DEFINITION IS CONSIDERED.
  *ELEMENT, TYPE=C3D8, ELSET=Elset571

 ***WARNING: ELEMENT LABEL 571 HAS BEEN USED MORE THAN ONCE. ONLY THE LAST 
             DEFINITION IS CONSIDERED.
  *ELEMENT, TYPE=C3D8, ELSET=Elset572

 ***WARNING: ELEMENT LABEL 572 HAS BEEN USED MORE THAN ONCE. ONLY THE LAST 
             DEFINITION IS CONSIDERED.
  *ELEMENT, TYPE=C3D8, ELSET=Elset573

 ***WARNING: ELEMENT LABEL 573 HAS BEEN USED MORE THAN ONCE. ONLY THE LAST 
             DEFINITION IS CONSIDERED.
  *ELEMENT, TYPE=C3D8, ELSET=Elset574

 ***WARNING: ELEMENT LABEL 574 HAS BEEN USED MORE THAN ONCE. ONLY THE LAST 
             DEFINITION IS CONSIDERED.
  *ELEMENT, TYPE=C3D8, ELSET=Elset575

 ***WARNING: ELEMENT LABEL 575 HAS BEEN USED MORE THAN ONCE. ONLY THE LAST 
             DEFINITION IS CONSIDERED.
  *ELEMENT, TYPE=C3D8, ELSET=Elset576

 ***WARNING: ELEMENT LABEL 576 HAS BEEN USED MORE THAN ONCE. ONLY THE LAST 
             DEFINITION IS CONSIDERED.
  *ELEMENT, TYPE=C3D8, ELSET=Elset577

 ***WARNING: ELEMENT LABEL 577 HAS BEEN USED MORE THAN ONCE. ONLY THE LAST 
             DEFINITION IS CONSIDERED.
  *ELEMENT, TYPE=C3D8, ELSET=Elset578

 ***WARNING: ELEMENT LABEL 578 HAS BEEN USED MORE THAN ONCE. ONLY THE LAST 
             DEFINITION IS CONSIDERED.
  *ELEMENT, TYPE=C3D8, ELSET=Elset579

 ***WARNING: ELEMENT LABEL 579 HAS BEEN USED MORE THAN ONCE. ONLY THE LAST 
             DEFINITION IS CONSIDERED.
  *ELEMENT, TYPE=C3D8, ELSET=Elset580

 ***WARNING: ELEMENT LABEL 580 HAS BEEN USED MORE THAN ONCE. ONLY THE LAST 
             DEFINITION IS CONSIDERED.
  *ELEMENT, TYPE=C3D8, ELSET=Elset581

 ***WARNING: ELEMENT LABEL 581 HAS BEEN USED MORE THAN ONCE. ONLY THE LAST 
             DEFINITION IS CONSIDERED.
  *ELEMENT, TYPE=C3D8, ELSET=Elset582

 ***WARNING: ELEMENT LABEL 582 HAS BEEN USED MORE THAN ONCE. ONLY THE LAST 
             DEFINITION IS CONSIDERED.
  *ELEMENT, TYPE=C3D8, ELSET=Elset583

 ***WARNING: ELEMENT LABEL 583 HAS BEEN USED MORE THAN ONCE. ONLY THE LAST 
             DEFINITION IS CONSIDERED.
  *ELEMENT, TYPE=C3D8, ELSET=Elset584

 ***WARNING: ELEMENT LABEL 584 HAS BEEN USED MORE THAN ONCE. ONLY THE LAST 
             DEFINITION IS CONSIDERED.
  *ELEMENT, TYPE=C3D8, ELSET=Elset585

 ***WARNING: ELEMENT LABEL 585 HAS BEEN USED MORE THAN ONCE. ONLY THE LAST 
             DEFINITION IS CONSIDERED.
  *ELEMENT, TYPE=C3D8, ELSET=Elset586

 ***WARNING: ELEMENT LABEL 586 HAS BEEN USED MORE THAN ONCE. ONLY THE LAST 
             DEFINITION IS CONSIDERED.
  *ELEMENT, TYPE=C3D8, ELSET=Elset587

 ***WARNING: ELEMENT LABEL 587 HAS BEEN USED MORE THAN ONCE. ONLY THE LAST 
             DEFINITION IS CONSIDERED.
  *ELEMENT, TYPE=C3D8, ELSET=Elset588

 ***WARNING: ELEMENT LABEL 588 HAS BEEN USED MORE THAN ONCE. ONLY THE LAST 
             DEFINITION IS CONSIDERED.
  *ELEMENT, TYPE=C3D8, ELSET=Elset600

 ***WARNING: ELEMENT LABEL 600 HAS BEEN USED MORE THAN ONCE. ONLY THE LAST 
             DEFINITION IS CONSIDERED.
  *ELEMENT, TYPE=C3D8, ELSET=Elset601

 ***WARNING: ELEMENT LABEL 601 HAS BEEN USED MORE THAN ONCE. ONLY THE LAST 
             DEFINITION IS CONSIDERED.
  *ELEMENT, TYPE=C3D8, ELSET=Elset602

 ***WARNING: ELEMENT LABEL 602 HAS BEEN USED MORE THAN ONCE. ONLY THE LAST 
             DEFINITION IS CONSIDERED.
  *ELEMENT, TYPE=C3D8, ELSET=Elset603

 ***WARNING: ELEMENT LABEL 603 HAS BEEN USED MORE THAN ONCE. ONLY THE LAST 
             DEFINITION IS CONSIDERED.
  *ELEMENT, TYPE=C3D8, ELSET=Elset604

 ***WARNING: ELEMENT LABEL 604 HAS BEEN USED MORE THAN ONCE. ONLY THE LAST 
             DEFINITION IS CONSIDERED.
  *ELEMENT, TYPE=C3D8, ELSET=Elset605

 ***WARNING: ELEMENT LABEL 605 HAS BEEN USED MORE THAN ONCE. ONLY THE LAST 
             DEFINITION IS CONSIDERED.
  *ELEMENT, TYPE=C3D8, ELSET=Elset606

 ***WARNING: ELEMENT LABEL 606 HAS BEEN USED MORE THAN ONCE. ONLY THE LAST 
             DEFINITION IS CONSIDERED.
  *ELEMENT, TYPE=C3D8, ELSET=Elset607

 ***WARNING: ELEMENT LABEL 607 HAS BEEN USED MORE THAN ONCE. ONLY THE LAST 
             DEFINITION IS CONSIDERED.
  *ELEMENT, TYPE=C3D8, ELSET=Elset608

 ***WARNING: ELEMENT LABEL 608 HAS BEEN USED MORE THAN ONCE. ONLY THE LAST 
             DEFINITION IS CONSIDERED.
  *ELEMENT, TYPE=C3D8, ELSET=Elset609

 ***WARNING: ELEMENT LABEL 609 HAS BEEN USED MORE THAN ONCE. ONLY THE LAST 
             DEFINITION IS CONSIDERED.
  *ELEMENT, TYPE=C3D8, ELSET=Elset610

 ***WARNING: ELEMENT LABEL 610 HAS BEEN USED MORE THAN ONCE. ONLY THE LAST 
             DEFINITION IS CONSIDERED.
  *ELEMENT, TYPE=C3D8, ELSET=Elset611

 ***WARNING: ELEMENT LABEL 611 HAS BEEN USED MORE THAN ONCE. ONLY THE LAST 
             DEFINITION IS CONSIDERED.
  *ELEMENT, TYPE=C3D8, ELSET=Elset612

 ***WARNING: ELEMENT LABEL 612 HAS BEEN USED MORE THAN ONCE. ONLY THE LAST 
             DEFINITION IS CONSIDERED.
  *ELEMENT, TYPE=C3D8, ELSET=Elset613

 ***WARNING: ELEMENT LABEL 613 HAS BEEN USED MORE THAN ONCE. ONLY THE LAST 
             DEFINITION IS CONSIDERED.
  *ELEMENT, TYPE=C3D8, ELSET=Elset614

 ***WARNING: ELEMENT LABEL 614 HAS BEEN USED MORE THAN ONCE. ONLY THE LAST 
             DEFINITION IS CONSIDERED.
  *ELEMENT, TYPE=C3D8, ELSET=Elset615

 ***WARNING: ELEMENT LABEL 615 HAS BEEN USED MORE THAN ONCE. ONLY THE LAST 
             DEFINITION IS CONSIDERED.
  *ELEMENT, TYPE=C3D8, ELSET=Elset616

 ***WARNING: ELEMENT LABEL 616 HAS BEEN USED MORE THAN ONCE. ONLY THE LAST 
             DEFINITION IS CONSIDERED.
  *ELEMENT, TYPE=C3D8, ELSET=Elset617

 ***WARNING: ELEMENT LABEL 617 HAS BEEN USED MORE THAN ONCE. ONLY THE LAST 
             DEFINITION IS CONSIDERED.
  *ELEMENT, TYPE=C3D8, ELSET=Elset618

 ***WARNING: ELEMENT LABEL 618 HAS BEEN USED MORE THAN ONCE. ONLY THE LAST 
             DEFINITION IS CONSIDERED.
  *ELEMENT, TYPE=C3D8, ELSET=Elset619

 ***WARNING: ELEMENT LABEL 619 HAS BEEN USED MORE THAN ONCE. ONLY THE LAST 
             DEFINITION IS CONSIDERED.
  *ELEMENT, TYPE=C3D8, ELSET=Elset620

 ***WARNING: ELEMENT LABEL 620 HAS BEEN USED MORE THAN ONCE. ONLY THE LAST 
             DEFINITION IS CONSIDERED.
  *ELEMENT, TYPE=C3D8, ELSET=Elset621

 ***WARNING: ELEMENT LABEL 621 HAS BEEN USED MORE THAN ONCE. ONLY THE LAST 
             DEFINITION IS CONSIDERED.
  *ELEMENT, TYPE=C3D8, ELSET=Elset633

 ***WARNING: ELEMENT LABEL 633 HAS BEEN USED MORE THAN ONCE. ONLY THE LAST 
             DEFINITION IS CONSIDERED.
  *ELEMENT, TYPE=C3D8, ELSET=Elset634

 ***WARNING: ELEMENT LABEL 634 HAS BEEN USED MORE THAN ONCE. ONLY THE LAST 
             DEFINITION IS CONSIDERED.
  *ELEMENT, TYPE=C3D8, ELSET=Elset635

 ***WARNING: ELEMENT LABEL 635 HAS BEEN USED MORE THAN ONCE. ONLY THE LAST 
             DEFINITION IS CONSIDERED.
  *ELEMENT, TYPE=C3D8, ELSET=Elset636

 ***WARNING: ELEMENT LABEL 636 HAS BEEN USED MORE THAN ONCE. ONLY THE LAST 
             DEFINITION IS CONSIDERED.
  *ELEMENT, TYPE=C3D8, ELSET=Elset637

 ***WARNING: ELEMENT LABEL 637 HAS BEEN USED MORE THAN ONCE. ONLY THE LAST 
             DEFINITION IS CONSIDERED.
  *ELEMENT, TYPE=C3D8, ELSET=Elset638

 ***WARNING: ELEMENT LABEL 638 HAS BEEN USED MORE THAN ONCE. ONLY THE LAST 
             DEFINITION IS CONSIDERED.
  *ELEMENT, TYPE=C3D8, ELSET=Elset639

 ***WARNING: ELEMENT LABEL 639 HAS BEEN USED MORE THAN ONCE. ONLY THE LAST 
             DEFINITION IS CONSIDERED.
  *ELEMENT, TYPE=C3D8, ELSET=Elset640

 ***WARNING: ELEMENT LABEL 640 HAS BEEN USED MORE THAN ONCE. ONLY THE LAST 
             DEFINITION IS CONSIDERED.
  *ELEMENT, TYPE=C3D8, ELSET=Elset641

 ***WARNING: ELEMENT LABEL 641 HAS BEEN USED MORE THAN ONCE. ONLY THE LAST 
             DEFINITION IS CONSIDERED.
  *ELEMENT, TYPE=C3D8, ELSET=Elset642

 ***WARNING: ELEMENT LABEL 642 HAS BEEN USED MORE THAN ONCE. ONLY THE LAST 
             DEFINITION IS CONSIDERED.
  *ELEMENT, TYPE=C3D8, ELSET=Elset643

 ***WARNING: ELEMENT LABEL 643 HAS BEEN USED MORE THAN ONCE. ONLY THE LAST 
             DEFINITION IS CONSIDERED.
  *ELEMENT, TYPE=C3D8, ELSET=Elset644

 ***WARNING: ELEMENT LABEL 644 HAS BEEN USED MORE THAN ONCE. ONLY THE LAST 
             DEFINITION IS CONSIDERED.
  *ELEMENT, TYPE=C3D8, ELSET=Elset645

 ***WARNING: ELEMENT LABEL 645 HAS BEEN USED MORE THAN ONCE. ONLY THE LAST 
             DEFINITION IS CONSIDERED.
  *ELEMENT, TYPE=C3D8, ELSET=Elset646

 ***WARNING: ELEMENT LABEL 646 HAS BEEN USED MORE THAN ONCE. ONLY THE LAST 
             DEFINITION IS CONSIDERED.
  *ELEMENT, TYPE=C3D8, ELSET=Elset647

 ***WARNING: ELEMENT LABEL 647 HAS BEEN USED MORE THAN ONCE. ONLY THE LAST 
             DEFINITION IS CONSIDERED.
  *ELEMENT, TYPE=C3D8, ELSET=Elset648

 ***WARNING: ELEMENT LABEL 648 HAS BEEN USED MORE THAN ONCE. ONLY THE LAST 
             DEFINITION IS CONSIDERED.
  *ELEMENT, TYPE=C3D8, ELSET=Elset649

 ***WARNING: ELEMENT LABEL 649 HAS BEEN USED MORE THAN ONCE. ONLY THE LAST 
             DEFINITION IS CONSIDERED.
  *ELEMENT, TYPE=C3D8, ELSET=Elset650

 ***WARNING: ELEMENT LABEL 650 HAS BEEN USED MORE THAN ONCE. ONLY THE LAST 
             DEFINITION IS CONSIDERED.
  *ELEMENT, TYPE=C3D8, ELSET=Elset651

 ***WARNING: ELEMENT LABEL 651 HAS BEEN USED MORE THAN ONCE. ONLY THE LAST 
             DEFINITION IS CONSIDERED.
  *ELEMENT, TYPE=C3D8, ELSET=Elset652

 ***WARNING: ELEMENT LABEL 652 HAS BEEN USED MORE THAN ONCE. ONLY THE LAST 
             DEFINITION IS CONSIDERED.
  *ELEMENT, TYPE=C3D8, ELSET=Elset653

 ***WARNING: ELEMENT LABEL 653 HAS BEEN USED MORE THAN ONCE. ONLY THE LAST 
             DEFINITION IS CONSIDERED.
  *ELEMENT, TYPE=C3D8, ELSET=Elset654

 ***WARNING: ELEMENT LABEL 654 HAS BEEN USED MORE THAN ONCE. ONLY THE LAST 
             DEFINITION IS CONSIDERED.
  *ELEMENT, TYPE=C3D8, ELSET=Elset667

 ***WARNING: ELEMENT LABEL 667 HAS BEEN USED MORE THAN ONCE. ONLY THE LAST 
             DEFINITION IS CONSIDERED.
  *ELEMENT, TYPE=C3D8, ELSET=Elset668

 ***WARNING: ELEMENT LABEL 668 HAS BEEN USED MORE THAN ONCE. ONLY THE LAST 
             DEFINITION IS CONSIDERED.
  *ELEMENT, TYPE=C3D8, ELSET=Elset669

 ***WARNING: ELEMENT LABEL 669 HAS BEEN USED MORE THAN ONCE. ONLY THE LAST 
             DEFINITION IS CONSIDERED.
  *ELEMENT, TYPE=C3D8, ELSET=Elset670

 ***WARNING: ELEMENT LABEL 670 HAS BEEN USED MORE THAN ONCE. ONLY THE LAST 
             DEFINITION IS CONSIDERED.
  *ELEMENT, TYPE=C3D8, ELSET=Elset671

 ***WARNING: ELEMENT LABEL 671 HAS BEEN USED MORE THAN ONCE. ONLY THE LAST 
             DEFINITION IS CONSIDERED.
  *ELEMENT, TYPE=C3D8, ELSET=Elset672

 ***WARNING: ELEMENT LABEL 672 HAS BEEN USED MORE THAN ONCE. ONLY THE LAST 
             DEFINITION IS CONSIDERED.
  *ELEMENT, TYPE=C3D8, ELSET=Elset673

 ***WARNING: ELEMENT LABEL 673 HAS BEEN USED MORE THAN ONCE. ONLY THE LAST 
             DEFINITION IS CONSIDERED.
  *ELEMENT, TYPE=C3D8, ELSET=Elset674

 ***WARNING: ELEMENT LABEL 674 HAS BEEN USED MORE THAN ONCE. ONLY THE LAST 
             DEFINITION IS CONSIDERED.
  *ELEMENT, TYPE=C3D8, ELSET=Elset675

 ***WARNING: ELEMENT LABEL 675 HAS BEEN USED MORE THAN ONCE. ONLY THE LAST 
             DEFINITION IS CONSIDERED.
  *ELEMENT, TYPE=C3D8, ELSET=Elset676

 ***WARNING: ELEMENT LABEL 676 HAS BEEN USED MORE THAN ONCE. ONLY THE LAST 
             DEFINITION IS CONSIDERED.
  *ELEMENT, TYPE=C3D8, ELSET=Elset677

 ***WARNING: ELEMENT LABEL 677 HAS BEEN USED MORE THAN ONCE. ONLY THE LAST 
             DEFINITION IS CONSIDERED.
  *ELEMENT, TYPE=C3D8, ELSET=Elset678

 ***WARNING: ELEMENT LABEL 678 HAS BEEN USED MORE THAN ONCE. ONLY THE LAST 
             DEFINITION IS CONSIDERED.
  *ELEMENT, TYPE=C3D8, ELSET=Elset679

 ***WARNING: ELEMENT LABEL 679 HAS BEEN USED MORE THAN ONCE. ONLY THE LAST 
             DEFINITION IS CONSIDERED.
  *ELEMENT, TYPE=C3D8, ELSET=Elset680

 ***WARNING: ELEMENT LABEL 680 HAS BEEN USED MORE THAN ONCE. ONLY THE LAST 
             DEFINITION IS CONSIDERED.
  *ELEMENT, TYPE=C3D8, ELSET=Elset681

 ***WARNING: ELEMENT LABEL 681 HAS BEEN USED MORE THAN ONCE. ONLY THE LAST 
             DEFINITION IS CONSIDERED.
  *ELEMENT, TYPE=C3D8, ELSET=Elset682

 ***WARNING: ELEMENT LABEL 682 HAS BEEN USED MORE THAN ONCE. ONLY THE LAST 
             DEFINITION IS CONSIDERED.
  *ELEMENT, TYPE=C3D8, ELSET=Elset683

 ***WARNING: ELEMENT LABEL 683 HAS BEEN USED MORE THAN ONCE. ONLY THE LAST 
             DEFINITION IS CONSIDERED.
  *ELEMENT, TYPE=C3D8, ELSET=Elset684

 ***WARNING: ELEMENT LABEL 684 HAS BEEN USED MORE THAN ONCE. ONLY THE LAST 
             DEFINITION IS CONSIDERED.
  *ELEMENT, TYPE=C3D8, ELSET=Elset685

 ***WARNING: ELEMENT LABEL 685 HAS BEEN USED MORE THAN ONCE. ONLY THE LAST 
             DEFINITION IS CONSIDERED.
  *ELEMENT, TYPE=C3D8, ELSET=Elset686

 ***WARNING: ELEMENT LABEL 686 HAS BEEN USED MORE THAN ONCE. ONLY THE LAST 
             DEFINITION IS CONSIDERED.
  *ELEMENT, TYPE=C3D8, ELSET=Elset687

 ***WARNING: ELEMENT LABEL 687 HAS BEEN USED MORE THAN ONCE. ONLY THE LAST 
             DEFINITION IS CONSIDERED.
  *ELEMENT, TYPE=C3D8, ELSET=Elset700

 ***WARNING: ELEMENT LABEL 700 HAS BEEN USED MORE THAN ONCE. ONLY THE LAST 
             DEFINITION IS CONSIDERED.
  *ELEMENT, TYPE=C3D8, ELSET=Elset701

 ***WARNING: ELEMENT LABEL 701 HAS BEEN USED MORE THAN ONCE. ONLY THE LAST 
             DEFINITION IS CONSIDERED.
  *ELEMENT, TYPE=C3D8, ELSET=Elset702

 ***WARNING: ELEMENT LABEL 702 HAS BEEN USED MORE THAN ONCE. ONLY THE LAST 
             DEFINITION IS CONSIDERED.
  *ELEMENT, TYPE=C3D8, ELSET=Elset703

 ***WARNING: ELEMENT LABEL 703 HAS BEEN USED MORE THAN ONCE. ONLY THE LAST 
             DEFINITION IS CONSIDERED.
  *ELEMENT, TYPE=C3D8, ELSET=Elset704

 ***WARNING: ELEMENT LABEL 704 HAS BEEN USED MORE THAN ONCE. ONLY THE LAST 
             DEFINITION IS CONSIDERED.
  *ELEMENT, TYPE=C3D8, ELSET=Elset705

 ***WARNING: ELEMENT LABEL 705 HAS BEEN USED MORE THAN ONCE. ONLY THE LAST 
             DEFINITION IS CONSIDERED.
  *ELEMENT, TYPE=C3D8, ELSET=Elset706

 ***WARNING: ELEMENT LABEL 706 HAS BEEN USED MORE THAN ONCE. ONLY THE LAST 
             DEFINITION IS CONSIDERED.
  *ELEMENT, TYPE=C3D8, ELSET=Elset707

 ***WARNING: ELEMENT LABEL 707 HAS BEEN USED MORE THAN ONCE. ONLY THE LAST 
             DEFINITION IS CONSIDERED.
  *ELEMENT, TYPE=C3D8, ELSET=Elset708

 ***WARNING: ELEMENT LABEL 708 HAS BEEN USED MORE THAN ONCE. ONLY THE LAST 
             DEFINITION IS CONSIDERED.
  *ELEMENT, TYPE=C3D8, ELSET=Elset709

 ***WARNING: ELEMENT LABEL 709 HAS BEEN USED MORE THAN ONCE. ONLY THE LAST 
             DEFINITION IS CONSIDERED.
  *ELEMENT, TYPE=C3D8, ELSET=Elset710

 ***WARNING: ELEMENT LABEL 710 HAS BEEN USED MORE THAN ONCE. ONLY THE LAST 
             DEFINITION IS CONSIDERED.
  *ELEMENT, TYPE=C3D8, ELSET=Elset711

 ***WARNING: ELEMENT LABEL 711 HAS BEEN USED MORE THAN ONCE. ONLY THE LAST 
             DEFINITION IS CONSIDERED.
  *ELEMENT, TYPE=C3D8, ELSET=Elset712

 ***WARNING: ELEMENT LABEL 712 HAS BEEN USED MORE THAN ONCE. ONLY THE LAST 
             DEFINITION IS CONSIDERED.
  *ELEMENT, TYPE=C3D8, ELSET=Elset713

 ***WARNING: ELEMENT LABEL 713 HAS BEEN USED MORE THAN ONCE. ONLY THE LAST 
             DEFINITION IS CONSIDERED.
  *ELEMENT, TYPE=C3D8, ELSET=Elset714

 ***WARNING: ELEMENT LABEL 714 HAS BEEN USED MORE THAN ONCE. ONLY THE LAST 
             DEFINITION IS CONSIDERED.
  *ELEMENT, TYPE=C3D8, ELSET=Elset715

 ***WARNING: ELEMENT LABEL 715 HAS BEEN USED MORE THAN ONCE. ONLY THE LAST 
             DEFINITION IS CONSIDERED.
  *ELEMENT, TYPE=C3D8, ELSET=Elset716

 ***WARNING: ELEMENT LABEL 716 HAS BEEN USED MORE THAN ONCE. ONLY THE LAST 
             DEFINITION IS CONSIDERED.
  *ELEMENT, TYPE=C3D8, ELSET=Elset717

 ***WARNING: ELEMENT LABEL 717 HAS BEEN USED MORE THAN ONCE. ONLY THE LAST 
             DEFINITION IS CONSIDERED.
  *ELEMENT, TYPE=C3D8, ELSET=Elset718

 ***WARNING: ELEMENT LABEL 718 HAS BEEN USED MORE THAN ONCE. ONLY THE LAST 
             DEFINITION IS CONSIDERED.
  *ELEMENT, TYPE=C3D8, ELSET=Elset719

 ***WARNING: ELEMENT LABEL 719 HAS BEEN USED MORE THAN ONCE. ONLY THE LAST 
             DEFINITION IS CONSIDERED.
  *ELEMENT, TYPE=C3D8, ELSET=Elset720

 ***WARNING: ELEMENT LABEL 720 HAS BEEN USED MORE THAN ONCE. ONLY THE LAST 
             DEFINITION IS CONSIDERED.
  *ELEMENT, TYPE=C3D8, ELSET=Elset733

 ***WARNING: ELEMENT LABEL 733 HAS BEEN USED MORE THAN ONCE. ONLY THE LAST 
             DEFINITION IS CONSIDERED.
  *ELEMENT, TYPE=C3D8, ELSET=Elset734

 ***WARNING: ELEMENT LABEL 734 HAS BEEN USED MORE THAN ONCE. ONLY THE LAST 
             DEFINITION IS CONSIDERED.
  *ELEMENT, TYPE=C3D8, ELSET=Elset735

 ***WARNING: ELEMENT LABEL 735 HAS BEEN USED MORE THAN ONCE. ONLY THE LAST 
             DEFINITION IS CONSIDERED.
  *ELEMENT, TYPE=C3D8, ELSET=Elset736

 ***WARNING: ELEMENT LABEL 736 HAS BEEN USED MORE THAN ONCE. ONLY THE LAST 
             DEFINITION IS CONSIDERED.
  *ELEMENT, TYPE=C3D8, ELSET=Elset737

 ***WARNING: ELEMENT LABEL 737 HAS BEEN USED MORE THAN ONCE. ONLY THE LAST 
             DEFINITION IS CONSIDERED.
  *ELEMENT, TYPE=C3D8, ELSET=Elset738

 ***WARNING: ELEMENT LABEL 738 HAS BEEN USED MORE THAN ONCE. ONLY THE LAST 
             DEFINITION IS CONSIDERED.
  *ELEMENT, TYPE=C3D8, ELSET=Elset739

 ***WARNING: ELEMENT LABEL 739 HAS BEEN USED MORE THAN ONCE. ONLY THE LAST 
             DEFINITION IS CONSIDERED.
  *ELEMENT, TYPE=C3D8, ELSET=Elset740

 ***WARNING: ELEMENT LABEL 740 HAS BEEN USED MORE THAN ONCE. ONLY THE LAST 
             DEFINITION IS CONSIDERED.
  *ELEMENT, TYPE=C3D8, ELSET=Elset741

 ***WARNING: ELEMENT LABEL 741 HAS BEEN USED MORE THAN ONCE. ONLY THE LAST 
             DEFINITION IS CONSIDERED.
  *ELEMENT, TYPE=C3D8, ELSET=Elset742

 ***WARNING: ELEMENT LABEL 742 HAS BEEN USED MORE THAN ONCE. ONLY THE LAST 
             DEFINITION IS CONSIDERED.
  *ELEMENT, TYPE=C3D8, ELSET=Elset743

 ***WARNING: ELEMENT LABEL 743 HAS BEEN USED MORE THAN ONCE. ONLY THE LAST 
             DEFINITION IS CONSIDERED.
  *ELEMENT, TYPE=C3D8, ELSET=Elset744

 ***WARNING: ELEMENT LABEL 744 HAS BEEN USED MORE THAN ONCE. ONLY THE LAST 
             DEFINITION IS CONSIDERED.
  *ELEMENT, TYPE=C3D8, ELSET=Elset745

 ***WARNING: ELEMENT LABEL 745 HAS BEEN USED MORE THAN ONCE. ONLY THE LAST 
             DEFINITION IS CONSIDERED.
  *ELEMENT, TYPE=C3D8, ELSET=Elset746

 ***WARNING: ELEMENT LABEL 746 HAS BEEN USED MORE THAN ONCE. ONLY THE LAST 
             DEFINITION IS CONSIDERED.
  *ELEMENT, TYPE=C3D8, ELSET=Elset747

 ***WARNING: ELEMENT LABEL 747 HAS BEEN USED MORE THAN ONCE. ONLY THE LAST 
             DEFINITION IS CONSIDERED.
  *ELEMENT, TYPE=C3D8, ELSET=Elset748

 ***WARNING: ELEMENT LABEL 748 HAS BEEN USED MORE THAN ONCE. ONLY THE LAST 
             DEFINITION IS CONSIDERED.
  *ELEMENT, TYPE=C3D8, ELSET=Elset749

 ***WARNING: ELEMENT LABEL 749 HAS BEEN USED MORE THAN ONCE. ONLY THE LAST 
             DEFINITION IS CONSIDERED.
  *ELEMENT, TYPE=C3D8, ELSET=Elset750

 ***WARNING: ELEMENT LABEL 750 HAS BEEN USED MORE THAN ONCE. ONLY THE LAST 
             DEFINITION IS CONSIDERED.
  *ELEMENT, TYPE=C3D8, ELSET=Elset751

 ***WARNING: ELEMENT LABEL 751 HAS BEEN USED MORE THAN ONCE. ONLY THE LAST 
             DEFINITION IS CONSIDERED.
  *ELEMENT, TYPE=C3D8, ELSET=Elset752

 ***WARNING: ELEMENT LABEL 752 HAS BEEN USED MORE THAN ONCE. ONLY THE LAST 
             DEFINITION IS CONSIDERED.
  *ELEMENT, TYPE=C3D8, ELSET=Elset767

 ***WARNING: ELEMENT LABEL 767 HAS BEEN USED MORE THAN ONCE. ONLY THE LAST 
             DEFINITION IS CONSIDERED.
  *ELEMENT, TYPE=C3D8, ELSET=Elset768

 ***WARNING: ELEMENT LABEL 768 HAS BEEN USED MORE THAN ONCE. ONLY THE LAST 
             DEFINITION IS CONSIDERED.
  *ELEMENT, TYPE=C3D8, ELSET=Elset769

 ***WARNING: ELEMENT LABEL 769 HAS BEEN USED MORE THAN ONCE. ONLY THE LAST 
             DEFINITION IS CONSIDERED.
  *ELEMENT, TYPE=C3D8, ELSET=Elset770

 ***WARNING: ELEMENT LABEL 770 HAS BEEN USED MORE THAN ONCE. ONLY THE LAST 
             DEFINITION IS CONSIDERED.
  *ELEMENT, TYPE=C3D8, ELSET=Elset771

 ***WARNING: ELEMENT LABEL 771 HAS BEEN USED MORE THAN ONCE. ONLY THE LAST 
             DEFINITION IS CONSIDERED.
  *ELEMENT, TYPE=C3D8, ELSET=Elset772

 ***WARNING: ELEMENT LABEL 772 HAS BEEN USED MORE THAN ONCE. ONLY THE LAST 
             DEFINITION IS CONSIDERED.
  *ELEMENT, TYPE=C3D8, ELSET=Elset773

 ***WARNING: ELEMENT LABEL 773 HAS BEEN USED MORE THAN ONCE. ONLY THE LAST 
             DEFINITION IS CONSIDERED.
  *ELEMENT, TYPE=C3D8, ELSET=Elset774

 ***WARNING: ELEMENT LABEL 774 HAS BEEN USED MORE THAN ONCE. ONLY THE LAST 
             DEFINITION IS CONSIDERED.
  *ELEMENT, TYPE=C3D8, ELSET=Elset775

 ***WARNING: ELEMENT LABEL 775 HAS BEEN USED MORE THAN ONCE. ONLY THE LAST 
             DEFINITION IS CONSIDERED.
  *ELEMENT, TYPE=C3D8, ELSET=Elset776

 ***WARNING: ELEMENT LABEL 776 HAS BEEN USED MORE THAN ONCE. ONLY THE LAST 
             DEFINITION IS CONSIDERED.
  *ELEMENT, TYPE=C3D8, ELSET=Elset777

 ***WARNING: ELEMENT LABEL 777 HAS BEEN USED MORE THAN ONCE. ONLY THE LAST 
             DEFINITION IS CONSIDERED.
  *ELEMENT, TYPE=C3D8, ELSET=Elset778

 ***WARNING: ELEMENT LABEL 778 HAS BEEN USED MORE THAN ONCE. ONLY THE LAST 
             DEFINITION IS CONSIDERED.
  *ELEMENT, TYPE=C3D8, ELSET=Elset779

 ***WARNING: ELEMENT LABEL 779 HAS BEEN USED MORE THAN ONCE. ONLY THE LAST 
             DEFINITION IS CONSIDERED.
  *ELEMENT, TYPE=C3D8, ELSET=Elset780

 ***WARNING: ELEMENT LABEL 780 HAS BEEN USED MORE THAN ONCE. ONLY THE LAST 
             DEFINITION IS CONSIDERED.
  *ELEMENT, TYPE=C3D8, ELSET=Elset781

 ***WARNING: ELEMENT LABEL 781 HAS BEEN USED MORE THAN ONCE. ONLY THE LAST 
             DEFINITION IS CONSIDERED.
  *ELEMENT, TYPE=C3D8, ELSET=Elset782

 ***WARNING: ELEMENT LABEL 782 HAS BEEN USED MORE THAN ONCE. ONLY THE LAST 
             DEFINITION IS CONSIDERED.
  *ELEMENT, TYPE=C3D8, ELSET=Elset783

 ***WARNING: ELEMENT LABEL 783 HAS BEEN USED MORE THAN ONCE. ONLY THE LAST 
             DEFINITION IS CONSIDERED.
  *ELEMENT, TYPE=C3D8, ELSET=Elset784

 ***WARNING: ELEMENT LABEL 784 HAS BEEN USED MORE THAN ONCE. ONLY THE LAST 
             DEFINITION IS CONSIDERED.
  *ELEMENT, TYPE=C3D8, ELSET=Elset785

 ***WARNING: ELEMENT LABEL 785 HAS BEEN USED MORE THAN ONCE. ONLY THE LAST 
             DEFINITION IS CONSIDERED.
  *ELEMENT, TYPE=C3D8, ELSET=Elset801

 ***WARNING: ELEMENT LABEL 801 HAS BEEN USED MORE THAN ONCE. ONLY THE LAST 
             DEFINITION IS CONSIDERED.
  *ELEMENT, TYPE=C3D8, ELSET=Elset802

 ***WARNING: ELEMENT LABEL 802 HAS BEEN USED MORE THAN ONCE. ONLY THE LAST 
             DEFINITION IS CONSIDERED.
  *ELEMENT, TYPE=C3D8, ELSET=Elset803

 ***WARNING: ELEMENT LABEL 803 HAS BEEN USED MORE THAN ONCE. ONLY THE LAST 
             DEFINITION IS CONSIDERED.
  *ELEMENT, TYPE=C3D8, ELSET=Elset804

 ***WARNING: ELEMENT LABEL 804 HAS BEEN USED MORE THAN ONCE. ONLY THE LAST 
             DEFINITION IS CONSIDERED.
  *ELEMENT, TYPE=C3D8, ELSET=Elset805

 ***WARNING: ELEMENT LABEL 805 HAS BEEN USED MORE THAN ONCE. ONLY THE LAST 
             DEFINITION IS CONSIDERED.
  *ELEMENT, TYPE=C3D8, ELSET=Elset806

 ***WARNING: ELEMENT LABEL 806 HAS BEEN USED MORE THAN ONCE. ONLY THE LAST 
             DEFINITION IS CONSIDERED.
  *ELEMENT, TYPE=C3D8, ELSET=Elset807

 ***WARNING: ELEMENT LABEL 807 HAS BEEN USED MORE THAN ONCE. ONLY THE LAST 
             DEFINITION IS CONSIDERED.
  *ELEMENT, TYPE=C3D8, ELSET=Elset808

 ***WARNING: ELEMENT LABEL 808 HAS BEEN USED MORE THAN ONCE. ONLY THE LAST 
             DEFINITION IS CONSIDERED.
  *ELEMENT, TYPE=C3D8, ELSET=Elset809

 ***WARNING: ELEMENT LABEL 809 HAS BEEN USED MORE THAN ONCE. ONLY THE LAST 
             DEFINITION IS CONSIDERED.
  *ELEMENT, TYPE=C3D8, ELSET=Elset810

 ***WARNING: ELEMENT LABEL 810 HAS BEEN USED MORE THAN ONCE. ONLY THE LAST 
             DEFINITION IS CONSIDERED.
  *ELEMENT, TYPE=C3D8, ELSET=Elset811

 ***WARNING: ELEMENT LABEL 811 HAS BEEN USED MORE THAN ONCE. ONLY THE LAST 
             DEFINITION IS CONSIDERED.
  *ELEMENT, TYPE=C3D8, ELSET=Elset812

 ***WARNING: ELEMENT LABEL 812 HAS BEEN USED MORE THAN ONCE. ONLY THE LAST 
             DEFINITION IS CONSIDERED.
  *ELEMENT, TYPE=C3D8, ELSET=Elset813

 ***WARNING: ELEMENT LABEL 813 HAS BEEN USED MORE THAN ONCE. ONLY THE LAST 
             DEFINITION IS CONSIDERED.
  *ELEMENT, TYPE=C3D8, ELSET=Elset814

 ***WARNING: ELEMENT LABEL 814 HAS BEEN USED MORE THAN ONCE. ONLY THE LAST 
             DEFINITION IS CONSIDERED.
  *ELEMENT, TYPE=C3D8, ELSET=Elset815

 ***WARNING: ELEMENT LABEL 815 HAS BEEN USED MORE THAN ONCE. ONLY THE LAST 
             DEFINITION IS CONSIDERED.
  *ELEMENT, TYPE=C3D8, ELSET=Elset816

 ***WARNING: ELEMENT LABEL 816 HAS BEEN USED MORE THAN ONCE. ONLY THE LAST 
             DEFINITION IS CONSIDERED.
  *ELEMENT, TYPE=C3D8, ELSET=Elset835

 ***WARNING: ELEMENT LABEL 835 HAS BEEN USED MORE THAN ONCE. ONLY THE LAST 
             DEFINITION IS CONSIDERED.
  *ELEMENT, TYPE=C3D8, ELSET=Elset836

 ***WARNING: ELEMENT LABEL 836 HAS BEEN USED MORE THAN ONCE. ONLY THE LAST 
             DEFINITION IS CONSIDERED.
  *ELEMENT, TYPE=C3D8, ELSET=Elset837

 ***WARNING: ELEMENT LABEL 837 HAS BEEN USED MORE THAN ONCE. ONLY THE LAST 
             DEFINITION IS CONSIDERED.
  *ELEMENT, TYPE=C3D8, ELSET=Elset838

 ***WARNING: ELEMENT LABEL 838 HAS BEEN USED MORE THAN ONCE. ONLY THE LAST 
             DEFINITION IS CONSIDERED.
  *ELEMENT, TYPE=C3D8, ELSET=Elset839

 ***WARNING: ELEMENT LABEL 839 HAS BEEN USED MORE THAN ONCE. ONLY THE LAST 
             DEFINITION IS CONSIDERED.
  *ELEMENT, TYPE=C3D8, ELSET=Elset840

 ***WARNING: ELEMENT LABEL 840 HAS BEEN USED MORE THAN ONCE. ONLY THE LAST 
             DEFINITION IS CONSIDERED.
  *ELEMENT, TYPE=C3D8, ELSET=Elset841

 ***WARNING: ELEMENT LABEL 841 HAS BEEN USED MORE THAN ONCE. ONLY THE LAST 
             DEFINITION IS CONSIDERED.
  *ELEMENT, TYPE=C3D8, ELSET=Elset842

 ***WARNING: ELEMENT LABEL 842 HAS BEEN USED MORE THAN ONCE. ONLY THE LAST 
             DEFINITION IS CONSIDERED.
  *ELEMENT, TYPE=C3D8, ELSET=Elset843

 ***WARNING: ELEMENT LABEL 843 HAS BEEN USED MORE THAN ONCE. ONLY THE LAST 
             DEFINITION IS CONSIDERED.
  *ELEMENT, TYPE=C3D8, ELSET=Elset844

 ***WARNING: ELEMENT LABEL 844 HAS BEEN USED MORE THAN ONCE. ONLY THE LAST 
             DEFINITION IS CONSIDERED.
  *ELEMENT, TYPE=C3D8, ELSET=Elset845

 ***WARNING: ELEMENT LABEL 845 HAS BEEN USED MORE THAN ONCE. ONLY THE LAST 
             DEFINITION IS CONSIDERED.
  *ELEMENT, TYPE=C3D8, ELSET=Elset846

 ***WARNING: ELEMENT LABEL 846 HAS BEEN USED MORE THAN ONCE. ONLY THE LAST 
             DEFINITION IS CONSIDERED.
  *ELEMENT, TYPE=C3D8, ELSET=Elset847

 ***WARNING: ELEMENT LABEL 847 HAS BEEN USED MORE THAN ONCE. ONLY THE LAST 
             DEFINITION IS CONSIDERED.
  *ELEMENT, TYPE=C3D8, ELSET=Elset848

 ***WARNING: ELEMENT LABEL 848 HAS BEEN USED MORE THAN ONCE. ONLY THE LAST 
             DEFINITION IS CONSIDERED.
  *ELEMENT, TYPE=C3D8, ELSET=Elset869

 ***WARNING: ELEMENT LABEL 869 HAS BEEN USED MORE THAN ONCE. ONLY THE LAST 
             DEFINITION IS CONSIDERED.
  *ELEMENT, TYPE=C3D8, ELSET=Elset870

 ***WARNING: ELEMENT LABEL 870 HAS BEEN USED MORE THAN ONCE. ONLY THE LAST 
             DEFINITION IS CONSIDERED.
  *ELEMENT, TYPE=C3D8, ELSET=Elset871

 ***WARNING: ELEMENT LABEL 871 HAS BEEN USED MORE THAN ONCE. ONLY THE LAST 
             DEFINITION IS CONSIDERED.
  *ELEMENT, TYPE=C3D8, ELSET=Elset872

 ***WARNING: ELEMENT LABEL 872 HAS BEEN USED MORE THAN ONCE. ONLY THE LAST 
             DEFINITION IS CONSIDERED.
  *ELEMENT, TYPE=C3D8, ELSET=Elset873

 ***WARNING: ELEMENT LABEL 873 HAS BEEN USED MORE THAN ONCE. ONLY THE LAST 
             DEFINITION IS CONSIDERED.
  *ELEMENT, TYPE=C3D8, ELSET=Elset874

 ***WARNING: ELEMENT LABEL 874 HAS BEEN USED MORE THAN ONCE. ONLY THE LAST 
             DEFINITION IS CONSIDERED.
  *ELEMENT, TYPE=C3D8, ELSET=Elset875

 ***WARNING: ELEMENT LABEL 875 HAS BEEN USED MORE THAN ONCE. ONLY THE LAST 
             DEFINITION IS CONSIDERED.
  *ELEMENT, TYPE=C3D8, ELSET=Elset876

 ***WARNING: ELEMENT LABEL 876 HAS BEEN USED MORE THAN ONCE. ONLY THE LAST 
             DEFINITION IS CONSIDERED.
  *ELEMENT, TYPE=C3D8, ELSET=Elset877

 ***WARNING: ELEMENT LABEL 877 HAS BEEN USED MORE THAN ONCE. ONLY THE LAST 
             DEFINITION IS CONSIDERED.
  *ELEMENT, TYPE=C3D8, ELSET=Elset878

 ***WARNING: ELEMENT LABEL 878 HAS BEEN USED MORE THAN ONCE. ONLY THE LAST 
             DEFINITION IS CONSIDERED.
  *NSET, NSET=TOPNODES
  *NSET, NSET=BOTNODES
  *NODE
  *NSET, NSET=REF_NODE
  *INCLUDE, input=/home/ms20s284/FRACTIB/04_Results/03_hFE/433_R_77_F/Steps/Step01.inp

  *** INPUT DATA IS READ FROM FILE /home/ms20s284/FRACTIB/04_Results/03_hFE/433_R_77_F/Steps/Step01.inp                                                                                                                                                                                           

  *INCLUDE, input=/home/ms20s284/FRACTIB/04_Results/03_hFE/433_R_77_F/Steps/Step02.inp

  *** INPUT DATA IS READ FROM FILE /home/ms20s284/FRACTIB/04_Results/03_hFE/433_R_77_F/Steps/Step02.inp                                                                                                                                                                                           

  *INCLUDE, input=/home/ms20s284/FRACTIB/04_Results/03_hFE/433_R_77_F/Steps/Step03.inp

  *** INPUT DATA IS READ FROM FILE /home/ms20s284/FRACTIB/04_Results/03_hFE/433_R_77_F/Steps/Step03.inp                                                                                                                                                                                           

  *INCLUDE, input=/home/ms20s284/FRACTIB/04_Results/03_hFE/433_R_77_F/Steps/Step04.inp

  *** INPUT DATA IS READ FROM FILE /home/ms20s284/FRACTIB/04_Results/03_hFE/433_R_77_F/Steps/Step04.inp                                                                                                                                                                                           

  *INCLUDE, input=/home/ms20s284/FRACTIB/04_Results/03_hFE/433_R_77_F/Steps/Step05.inp

  *** INPUT DATA IS READ FROM FILE /home/ms20s284/FRACTIB/04_Results/03_hFE/433_R_77_F/Steps/Step05.inp                                                                                                                                                                                           

  *INCLUDE, input=/home/ms20s284/FRACTIB/04_Results/03_hFE/433_R_77_F/Steps/Step06.inp

  *** INPUT DATA IS READ FROM FILE /home/ms20s284/FRACTIB/04_Results/03_hFE/433_R_77_F/Steps/Step06.inp                                                                                                                                                                                           

  *INCLUDE, input=/home/ms20s284/FRACTIB/04_Results/03_hFE/433_R_77_F/Steps/Step07.inp

  *** INPUT DATA IS READ FROM FILE /home/ms20s284/FRACTIB/04_Results/03_hFE/433_R_77_F/Steps/Step07.inp                                                                                                                                                                                           

  *INCLUDE, input=/home/ms20s284/FRACTIB/04_Results/03_hFE/433_R_77_F/Steps/Step08.inp

  *** INPUT DATA IS READ FROM FILE /home/ms20s284/FRACTIB/04_Results/03_hFE/433_R_77_F/Steps/Step08.inp                                                                                                                                                                                           

  *INCLUDE, input=/home/ms20s284/FRACTIB/04_Results/03_hFE/433_R_77_F/Steps/Step09.inp

  *** INPUT DATA IS READ FROM FILE /home/ms20s284/FRACTIB/04_Results/03_hFE/433_R_77_F/Steps/Step09.inp                                                                                                                                                                                           

  *INCLUDE, input=/home/ms20s284/FRACTIB/04_Results/03_hFE/433_R_77_F/Steps/Step10.inp

  *** INPUT DATA IS READ FROM FILE /home/ms20s284/FRACTIB/04_Results/03_hFE/433_R_77_F/Steps/Step10.inp                                                                                                                                                                                           

  *MATERIAL, NAME=Mat144
  *USER MATERIAL, CONSTANTS=7, UNSYMM, TYPE=MECHANICAL
  *DEPVAR
  *MATERIAL, NAME=Mat145
  *USER MATERIAL, CONSTANTS=7, UNSYMM, TYPE=MECHANICAL
  *DEPVAR
  *MATERIAL, NAME=Mat146
  *USER MATERIAL, CONSTANTS=7, UNSYMM, TYPE=MECHANICAL
  *DEPVAR
  *MATERIAL, NAME=Mat147
  *USER MATERIAL, CONSTANTS=7, UNSYMM, TYPE=MECHANICAL
  *DEPVAR
  *MATERIAL, NAME=Mat175
  *USER MATERIAL, CONSTANTS=7, UNSYMM, TYPE=MECHANICAL
  *DEPVAR
  *MATERIAL, NAME=Mat176
  *USER MATERIAL, CONSTANTS=7, UNSYMM, TYPE=MECHANICAL
  *DEPVAR
  *MATERIAL, NAME=Mat177
  *USER MATERIAL, CONSTANTS=7, UNSYMM, TYPE=MECHANICAL
  *DEPVAR
  *MATERIAL, NAME=Mat178
  *USER MATERIAL, CONSTANTS=7, UNSYMM, TYPE=MECHANICAL
  *DEPVAR
  *MATERIAL, NAME=Mat179
  *USER MATERIAL, CONSTANTS=7, UNSYMM, TYPE=MECHANICAL
  *DEPVAR
  *MATERIAL, NAME=Mat180
  *USER MATERIAL, CONSTANTS=7, UNSYMM, TYPE=MECHANICAL
  *DEPVAR
  *MATERIAL, NAME=Mat181
  *USER MATERIAL, CONSTANTS=7, UNSYMM, TYPE=MECHANICAL
  *DEPVAR
  *MATERIAL, NAME=Mat182
  *USER MATERIAL, CONSTANTS=7, UNSYMM, TYPE=MECHANICAL
  *DEPVAR
  *MATERIAL, NAME=Mat207
  *USER MATERIAL, CONSTANTS=7, UNSYMM, TYPE=MECHANICAL
  *DEPVAR
  *MATERIAL, NAME=Mat208
  *USER MATERIAL, CONSTANTS=7, UNSYMM, TYPE=MECHANICAL
  *DEPVAR
  *MATERIAL, NAME=Mat209
  *USER MATERIAL, CONSTANTS=7, UNSYMM, TYPE=MECHANICAL
  *DEPVAR
  *MATERIAL, NAME=Mat210
  *USER MATERIAL, CONSTANTS=7, UNSYMM, TYPE=MECHANICAL
  *DEPVAR
  *MATERIAL, NAME=Mat211
  *USER MATERIAL, CONSTANTS=7, UNSYMM, TYPE=MECHANICAL
  *DEPVAR
  *MATERIAL, NAME=Mat212
  *USER MATERIAL, CONSTANTS=7, UNSYMM, TYPE=MECHANICAL
  *DEPVAR
  *MATERIAL, NAME=Mat213
  *USER MATERIAL, CONSTANTS=7, UNSYMM, TYPE=MECHANICAL
  *DEPVAR
  *MATERIAL, NAME=Mat214
  *USER MATERIAL, CONSTANTS=7, UNSYMM, TYPE=MECHANICAL
  *DEPVAR
  *MATERIAL, NAME=Mat215
  *USER MATERIAL, CONSTANTS=7, UNSYMM, TYPE=MECHANICAL
  *DEPVAR
  *MATERIAL, NAME=Mat216
  *USER MATERIAL, CONSTANTS=7, UNSYMM, TYPE=MECHANICAL
  *DEPVAR
  *MATERIAL, NAME=Mat217
  *USER MATERIAL, CONSTANTS=7, UNSYMM, TYPE=MECHANICAL
  *DEPVAR
  *MATERIAL, NAME=Mat218
  *USER MATERIAL, CONSTANTS=7, UNSYMM, TYPE=MECHANICAL
  *DEPVAR
  *MATERIAL, NAME=Mat240
  *USER MATERIAL, CONSTANTS=7, UNSYMM, TYPE=MECHANICAL
  *DEPVAR
  *MATERIAL, NAME=Mat241
  *USER MATERIAL, CONSTANTS=7, UNSYMM, TYPE=MECHANICAL
  *DEPVAR
  *MATERIAL, NAME=Mat242
  *USER MATERIAL, CONSTANTS=7, UNSYMM, TYPE=MECHANICAL
  *DEPVAR
  *MATERIAL, NAME=Mat243
  *USER MATERIAL, CONSTANTS=7, UNSYMM, TYPE=MECHANICAL
  *DEPVAR
  *MATERIAL, NAME=Mat244
  *USER MATERIAL, CONSTANTS=7, UNSYMM, TYPE=MECHANICAL
  *DEPVAR
  *MATERIAL, NAME=Mat245
  *USER MATERIAL, CONSTANTS=7, UNSYMM, TYPE=MECHANICAL
  *DEPVAR
  *MATERIAL, NAME=Mat246
  *USER MATERIAL, CONSTANTS=7, UNSYMM, TYPE=MECHANICAL
  *DEPVAR
  *MATERIAL, NAME=Mat247
  *USER MATERIAL, CONSTANTS=7, UNSYMM, TYPE=MECHANICAL
  *DEPVAR
  *MATERIAL, NAME=Mat248
  *USER MATERIAL, CONSTANTS=7, UNSYMM, TYPE=MECHANICAL
  *DEPVAR
  *MATERIAL, NAME=Mat249
  *USER MATERIAL, CONSTANTS=7, UNSYMM, TYPE=MECHANICAL
  *DEPVAR
  *MATERIAL, NAME=Mat250
  *USER MATERIAL, CONSTANTS=7, UNSYMM, TYPE=MECHANICAL
  *DEPVAR
  *MATERIAL, NAME=Mat251
  *USER MATERIAL, CONSTANTS=7, UNSYMM, TYPE=MECHANICAL
  *DEPVAR
  *MATERIAL, NAME=Mat252
  *USER MATERIAL, CONSTANTS=7, UNSYMM, TYPE=MECHANICAL
  *DEPVAR
  *MATERIAL, NAME=Mat272
  *USER MATERIAL, CONSTANTS=7, UNSYMM, TYPE=MECHANICAL
  *DEPVAR
  *MATERIAL, NAME=Mat273
  *USER MATERIAL, CONSTANTS=7, UNSYMM, TYPE=MECHANICAL
  *DEPVAR
  *MATERIAL, NAME=Mat274
  *USER MATERIAL, CONSTANTS=7, UNSYMM, TYPE=MECHANICAL
  *DEPVAR
  *MATERIAL, NAME=Mat275
  *USER MATERIAL, CONSTANTS=7, UNSYMM, TYPE=MECHANICAL
  *DEPVAR
  *MATERIAL, NAME=Mat276
  *USER MATERIAL, CONSTANTS=7, UNSYMM, TYPE=MECHANICAL
  *DEPVAR
  *MATERIAL, NAME=Mat277
  *USER MATERIAL, CONSTANTS=7, UNSYMM, TYPE=MECHANICAL
  *DEPVAR
  *MATERIAL, NAME=Mat278
  *USER MATERIAL, CONSTANTS=7, UNSYMM, TYPE=MECHANICAL
  *DEPVAR
  *MATERIAL, NAME=Mat279
  *USER MATERIAL, CONSTANTS=7, UNSYMM, TYPE=MECHANICAL
  *DEPVAR
  *MATERIAL, NAME=Mat280
  *USER MATERIAL, CONSTANTS=7, UNSYMM, TYPE=MECHANICAL
  *DEPVAR
  *MATERIAL, NAME=Mat281
  *USER MATERIAL, CONSTANTS=7, UNSYMM, TYPE=MECHANICAL
  *DEPVAR
  *MATERIAL, NAME=Mat282
  *USER MATERIAL, CONSTANTS=7, UNSYMM, TYPE=MECHANICAL
  *DEPVAR
  *MATERIAL, NAME=Mat283
  *USER MATERIAL, CONSTANTS=7, UNSYMM, TYPE=MECHANICAL
  *DEPVAR
  *MATERIAL, NAME=Mat284
  *USER MATERIAL, CONSTANTS=7, UNSYMM, TYPE=MECHANICAL
  *DEPVAR
  *MATERIAL, NAME=Mat285
  *USER MATERIAL, CONSTANTS=7, UNSYMM, TYPE=MECHANICAL
  *DEPVAR
  *MATERIAL, NAME=Mat286
  *USER MATERIAL, CONSTANTS=7, UNSYMM, TYPE=MECHANICAL
  *DEPVAR
  *MATERIAL, NAME=Mat305
  *USER MATERIAL, CONSTANTS=7, UNSYMM, TYPE=MECHANICAL
  *DEPVAR
  *MATERIAL, NAME=Mat306
  *USER MATERIAL, CONSTANTS=7, UNSYMM, TYPE=MECHANICAL
  *DEPVAR
  *MATERIAL, NAME=Mat307
  *USER MATERIAL, CONSTANTS=7, UNSYMM, TYPE=MECHANICAL
  *DEPVAR
  *MATERIAL, NAME=Mat308
  *USER MATERIAL, CONSTANTS=7, UNSYMM, TYPE=MECHANICAL
  *DEPVAR
  *MATERIAL, NAME=Mat309
  *USER MATERIAL, CONSTANTS=7, UNSYMM, TYPE=MECHANICAL
  *DEPVAR
  *MATERIAL, NAME=Mat310
  *USER MATERIAL, CONSTANTS=7, UNSYMM, TYPE=MECHANICAL
  *DEPVAR
  *MATERIAL, NAME=Mat311
  *USER MATERIAL, CONSTANTS=7, UNSYMM, TYPE=MECHANICAL
  *DEPVAR
  *MATERIAL, NAME=Mat312
  *USER MATERIAL, CONSTANTS=7, UNSYMM, TYPE=MECHANICAL
  *DEPVAR
  *MATERIAL, NAME=Mat313
  *USER MATERIAL, CONSTANTS=7, UNSYMM, TYPE=MECHANICAL
  *DEPVAR
  *MATERIAL, NAME=Mat314
  *USER MATERIAL, CONSTANTS=7, UNSYMM, TYPE=MECHANICAL
  *DEPVAR
  *MATERIAL, NAME=Mat315
  *USER MATERIAL, CONSTANTS=7, UNSYMM, TYPE=MECHANICAL
  *DEPVAR
  *MATERIAL, NAME=Mat316
  *USER MATERIAL, CONSTANTS=7, UNSYMM, TYPE=MECHANICAL
  *DEPVAR
  *MATERIAL, NAME=Mat317
  *USER MATERIAL, CONSTANTS=7, UNSYMM, TYPE=MECHANICAL
  *DEPVAR
  *MATERIAL, NAME=Mat318
  *USER MATERIAL, CONSTANTS=7, UNSYMM, TYPE=MECHANICAL
  *DEPVAR
  *MATERIAL, NAME=Mat319
  *USER MATERIAL, CONSTANTS=7, UNSYMM, TYPE=MECHANICAL
  *DEPVAR
  *MATERIAL, NAME=Mat320
  *USER MATERIAL, CONSTANTS=7, UNSYMM, TYPE=MECHANICAL
  *DEPVAR
  *MATERIAL, NAME=Mat337
  *USER MATERIAL, CONSTANTS=7, UNSYMM, TYPE=MECHANICAL
  *DEPVAR
  *MATERIAL, NAME=Mat338
  *USER MATERIAL, CONSTANTS=7, UNSYMM, TYPE=MECHANICAL
  *DEPVAR
  *MATERIAL, NAME=Mat339
  *USER MATERIAL, CONSTANTS=7, UNSYMM, TYPE=MECHANICAL
  *DEPVAR
  *MATERIAL, NAME=Mat340
  *USER MATERIAL, CONSTANTS=7, UNSYMM, TYPE=MECHANICAL
  *DEPVAR
  *MATERIAL, NAME=Mat341
  *USER MATERIAL, CONSTANTS=7, UNSYMM, TYPE=MECHANICAL
  *DEPVAR
  *MATERIAL, NAME=Mat342
  *USER MATERIAL, CONSTANTS=7, UNSYMM, TYPE=MECHANICAL
  *DEPVAR
  *MATERIAL, NAME=Mat343
  *USER MATERIAL, CONSTANTS=7, UNSYMM, TYPE=MECHANICAL
  *DEPVAR
  *MATERIAL, NAME=Mat344
  *USER MATERIAL, CONSTANTS=7, UNSYMM, TYPE=MECHANICAL
  *DEPVAR
  *MATERIAL, NAME=Mat345
  *USER MATERIAL, CONSTANTS=7, UNSYMM, TYPE=MECHANICAL
  *DEPVAR
  *MATERIAL, NAME=Mat346
  *USER MATERIAL, CONSTANTS=7, UNSYMM, TYPE=MECHANICAL
  *DEPVAR
  *MATERIAL, NAME=Mat347
  *USER MATERIAL, CONSTANTS=7, UNSYMM, TYPE=MECHANICAL
  *DEPVAR
  *MATERIAL, NAME=Mat348
  *USER MATERIAL, CONSTANTS=7, UNSYMM, TYPE=MECHANICAL
  *DEPVAR
  *MATERIAL, NAME=Mat349
  *USER MATERIAL, CONSTANTS=7, UNSYMM, TYPE=MECHANICAL
  *DEPVAR
  *MATERIAL, NAME=Mat350
  *USER MATERIAL, CONSTANTS=7, UNSYMM, TYPE=MECHANICAL
  *DEPVAR
  *MATERIAL, NAME=Mat351
  *USER MATERIAL, CONSTANTS=7, UNSYMM, TYPE=MECHANICAL
  *DEPVAR
  *MATERIAL, NAME=Mat352
  *USER MATERIAL, CONSTANTS=7, UNSYMM, TYPE=MECHANICAL
  *DEPVAR
  *MATERIAL, NAME=Mat353
  *USER MATERIAL, CONSTANTS=7, UNSYMM, TYPE=MECHANICAL
  *DEPVAR
  *MATERIAL, NAME=Mat354
  *USER MATERIAL, CONSTANTS=7, UNSYMM, TYPE=MECHANICAL
  *DEPVAR
  *MATERIAL, NAME=Mat370
  *USER MATERIAL, CONSTANTS=7, UNSYMM, TYPE=MECHANICAL
  *DEPVAR
  *MATERIAL, NAME=Mat371
  *USER MATERIAL, CONSTANTS=7, UNSYMM, TYPE=MECHANICAL
  *DEPVAR
  *MATERIAL, NAME=Mat372
  *USER MATERIAL, CONSTANTS=7, UNSYMM, TYPE=MECHANICAL
  *DEPVAR
  *MATERIAL, NAME=Mat373
  *USER MATERIAL, CONSTANTS=7, UNSYMM, TYPE=MECHANICAL
  *DEPVAR
  *MATERIAL, NAME=Mat374
  *USER MATERIAL, CONSTANTS=7, UNSYMM, TYPE=MECHANICAL
  *DEPVAR
  *MATERIAL, NAME=Mat375
  *USER MATERIAL, CONSTANTS=7, UNSYMM, TYPE=MECHANICAL
  *DEPVAR
  *MATERIAL, NAME=Mat376
  *USER MATERIAL, CONSTANTS=7, UNSYMM, TYPE=MECHANICAL
  *DEPVAR
  *MATERIAL, NAME=Mat377
  *USER MATERIAL, CONSTANTS=7, UNSYMM, TYPE=MECHANICAL
  *DEPVAR
  *MATERIAL, NAME=Mat378
  *USER MATERIAL, CONSTANTS=7, UNSYMM, TYPE=MECHANICAL
  *DEPVAR
  *MATERIAL, NAME=Mat379
  *USER MATERIAL, CONSTANTS=7, UNSYMM, TYPE=MECHANICAL
  *DEPVAR
  *MATERIAL, NAME=Mat380
  *USER MATERIAL, CONSTANTS=7, UNSYMM, TYPE=MECHANICAL
  *DEPVAR
  *MATERIAL, NAME=Mat381
  *USER MATERIAL, CONSTANTS=7, UNSYMM, TYPE=MECHANICAL
  *DEPVAR
  *MATERIAL, NAME=Mat382
  *USER MATERIAL, CONSTANTS=7, UNSYMM, TYPE=MECHANICAL
  *DEPVAR
  *MATERIAL, NAME=Mat383
  *USER MATERIAL, CONSTANTS=7, UNSYMM, TYPE=MECHANICAL
  *DEPVAR
  *MATERIAL, NAME=Mat384
  *USER MATERIAL, CONSTANTS=7, UNSYMM, TYPE=MECHANICAL
  *DEPVAR
  *MATERIAL, NAME=Mat385
  *USER MATERIAL, CONSTANTS=7, UNSYMM, TYPE=MECHANICAL
  *DEPVAR
  *MATERIAL, NAME=Mat386
  *USER MATERIAL, CONSTANTS=7, UNSYMM, TYPE=MECHANICAL
  *DEPVAR
  *MATERIAL, NAME=Mat387
  *USER MATERIAL, CONSTANTS=7, UNSYMM, TYPE=MECHANICAL
  *DEPVAR
  *MATERIAL, NAME=Mat388
  *USER MATERIAL, CONSTANTS=7, UNSYMM, TYPE=MECHANICAL
  *DEPVAR
  *MATERIAL, NAME=Mat403
  *USER MATERIAL, CONSTANTS=7, UNSYMM, TYPE=MECHANICAL
  *DEPVAR
  *MATERIAL, NAME=Mat404
  *USER MATERIAL, CONSTANTS=7, UNSYMM, TYPE=MECHANICAL
  *DEPVAR
  *MATERIAL, NAME=Mat405
  *USER MATERIAL, CONSTANTS=7, UNSYMM, TYPE=MECHANICAL
  *DEPVAR
  *MATERIAL, NAME=Mat406
  *USER MATERIAL, CONSTANTS=7, UNSYMM, TYPE=MECHANICAL
  *DEPVAR
  *MATERIAL, NAME=Mat407
  *USER MATERIAL, CONSTANTS=7, UNSYMM, TYPE=MECHANICAL
  *DEPVAR
  *MATERIAL, NAME=Mat408
  *USER MATERIAL, CONSTANTS=7, UNSYMM, TYPE=MECHANICAL
  *DEPVAR
  *MATERIAL, NAME=Mat409
  *USER MATERIAL, CONSTANTS=7, UNSYMM, TYPE=MECHANICAL
  *DEPVAR
  *MATERIAL, NAME=Mat410
  *USER MATERIAL, CONSTANTS=7, UNSYMM, TYPE=MECHANICAL
  *DEPVAR
  *MATERIAL, NAME=Mat411
  *USER MATERIAL, CONSTANTS=7, UNSYMM, TYPE=MECHANICAL
  *DEPVAR
  *MATERIAL, NAME=Mat412
  *USER MATERIAL, CONSTANTS=7, UNSYMM, TYPE=MECHANICAL
  *DEPVAR
  *MATERIAL, NAME=Mat413
  *USER MATERIAL, CONSTANTS=7, UNSYMM, TYPE=MECHANICAL
  *DEPVAR
  *MATERIAL, NAME=Mat414
  *USER MATERIAL, CONSTANTS=7, UNSYMM, TYPE=MECHANICAL
  *DEPVAR
  *MATERIAL, NAME=Mat415
  *USER MATERIAL, CONSTANTS=7, UNSYMM, TYPE=MECHANICAL
  *DEPVAR
  *MATERIAL, NAME=Mat416
  *USER MATERIAL, CONSTANTS=7, UNSYMM, TYPE=MECHANICAL
  *DEPVAR
  *MATERIAL, NAME=Mat417
  *USER MATERIAL, CONSTANTS=7, UNSYMM, TYPE=MECHANICAL
  *DEPVAR
  *MATERIAL, NAME=Mat418
  *USER MATERIAL, CONSTANTS=7, UNSYMM, TYPE=MECHANICAL
  *DEPVAR
  *MATERIAL, NAME=Mat419
  *USER MATERIAL, CONSTANTS=7, UNSYMM, TYPE=MECHANICAL
  *DEPVAR
  *MATERIAL, NAME=Mat420
  *USER MATERIAL, CONSTANTS=7, UNSYMM, TYPE=MECHANICAL
  *DEPVAR
  *MATERIAL, NAME=Mat421
  *USER MATERIAL, CONSTANTS=7, UNSYMM, TYPE=MECHANICAL
  *DEPVAR
  *MATERIAL, NAME=Mat435
  *USER MATERIAL, CONSTANTS=7, UNSYMM, TYPE=MECHANICAL
  *DEPVAR
  *MATERIAL, NAME=Mat436
  *USER MATERIAL, CONSTANTS=7, UNSYMM, TYPE=MECHANICAL
  *DEPVAR
  *MATERIAL, NAME=Mat437
  *USER MATERIAL, CONSTANTS=7, UNSYMM, TYPE=MECHANICAL
  *DEPVAR
  *MATERIAL, NAME=Mat438
  *USER MATERIAL, CONSTANTS=7, UNSYMM, TYPE=MECHANICAL
  *DEPVAR
  *MATERIAL, NAME=Mat439
  *USER MATERIAL, CONSTANTS=7, UNSYMM, TYPE=MECHANICAL
  *DEPVAR
[...]
            NOTE
  
   10000000      4.7000000E-02 -8.9800000E-02 -2.6760000E-01 -8.3824414E-06 -7.8788360E-04  5.9736456E-05
  
  
  
   THE FOLLOWING TABLE IS PRINTED FOR NODES BELONGING TO NODE SET REF_NODE
  
       NODE FOOT-  RF1            RF2            RF3            RM1            RM2            RM3          
            NOTE
  
   10000000      1.0482288E+03 -3.1589455E+03 -2.4098427E+03 -4.0792249E+03 -6.3993813E+03 -1.1503940E+04
  
  
  
   THE FOLLOWING TABLE IS PRINTED FOR NODES BELONGING TO NODE SET REF_NODE
  
       NODE FOOT-  CF1            CF2            CF3            CM1            CM2            CM3          
            NOTE
  
  ALL VALUES IN THIS TABLE ARE ZERO


                                INCREMENT     5 SUMMARY


 TIME INCREMENT COMPLETED  5.000E-02,  FRACTION OF STEP COMPLETED  0.250    
 STEP TIME COMPLETED       0.250    ,  TOTAL TIME COMPLETED         9.25    
  
  
  
  
                                       N O D E   O U T P U T
  
  
  
  
   THE FOLLOWING TABLE IS PRINTED FOR NODES BELONGING TO NODE SET REF_NODE
  
       NODE FOOT-  U1             U2             U3             UR1            UR2            UR3          
            NOTE
  
   10000000      4.7250000E-02 -8.6500000E-02 -2.7225000E-01 -8.3809480E-06 -7.3788360E-04  5.9736666E-05
  
  
  
   THE FOLLOWING TABLE IS PRINTED FOR NODES BELONGING TO NODE SET REF_NODE
  
       NODE FOOT-  RF1            RF2            RF3            RM1            RM2            RM3          
            NOTE
  
   10000000      1.0448814E+03 -3.0555735E+03 -2.6449020E+03 -4.3690047E+03 -5.8646013E+03 -1.1298719E+04
  
  
  
   THE FOLLOWING TABLE IS PRINTED FOR NODES BELONGING TO NODE SET REF_NODE
  
       NODE FOOT-  CF1            CF2            CF3            CM1            CM2            CM3          
            NOTE
  
  ALL VALUES IN THIS TABLE ARE ZERO


                                INCREMENT     6 SUMMARY


 TIME INCREMENT COMPLETED  5.000E-02,  FRACTION OF STEP COMPLETED  0.300    
 STEP TIME COMPLETED       0.300    ,  TOTAL TIME COMPLETED         9.30    
  
  
  
  
                                       N O D E   O U T P U T
  
  
  
  
   THE FOLLOWING TABLE IS PRINTED FOR NODES BELONGING TO NODE SET REF_NODE
  
       NODE FOOT-  U1             U2             U3             UR1            UR2            UR3          
            NOTE
  
   10000000      4.7500000E-02 -8.3200000E-02 -2.7690000E-01 -8.3794545E-06 -6.8788360E-04  5.9736875E-05
  
  
  
   THE FOLLOWING TABLE IS PRINTED FOR NODES BELONGING TO NODE SET REF_NODE
  
       NODE FOOT-  RF1            RF2            RF3            RM1            RM2            RM3          
            NOTE
  
   10000000      1.0410867E+03 -2.9575216E+03 -2.8727412E+03 -4.6462671E+03 -5.3348646E+03 -1.1101948E+04
  
  
  
   THE FOLLOWING TABLE IS PRINTED FOR NODES BELONGING TO NODE SET REF_NODE
  
       NODE FOOT-  CF1            CF2            CF3            CM1            CM2            CM3          
            NOTE
  
  ALL VALUES IN THIS TABLE ARE ZERO


                                INCREMENT     7 SUMMARY


 TIME INCREMENT COMPLETED  5.000E-02,  FRACTION OF STEP COMPLETED  0.350    
 STEP TIME COMPLETED       0.350    ,  TOTAL TIME COMPLETED         9.35    
  
  
  
  
                                       N O D E   O U T P U T
  
  
  
  
   THE FOLLOWING TABLE IS PRINTED FOR NODES BELONGING TO NODE SET REF_NODE
  
       NODE FOOT-  U1             U2             U3             UR1            UR2            UR3          
            NOTE
  
   10000000      4.7750000E-02 -7.9900000E-02 -2.8155000E-01 -8.3779611E-06 -6.3788360E-04  5.9737084E-05
  
  
  
   THE FOLLOWING TABLE IS PRINTED FOR NODES BELONGING TO NODE SET REF_NODE
  
       NODE FOOT-  RF1            RF2            RF3            RM1            RM2            RM3          
            NOTE
  
   10000000      1.0368853E+03 -2.8638018E+03 -3.0944489E+03 -4.9113611E+03 -4.8081045E+03 -1.0910328E+04
  
  
  
   THE FOLLOWING TABLE IS PRINTED FOR NODES BELONGING TO NODE SET REF_NODE
  
       NODE FOOT-  CF1            CF2            CF3            CM1            CM2            CM3          
            NOTE
  
  ALL VALUES IN THIS TABLE ARE ZERO


                                INCREMENT     8 SUMMARY


 TIME INCREMENT COMPLETED  5.000E-02,  FRACTION OF STEP COMPLETED  0.400    
 STEP TIME COMPLETED       0.400    ,  TOTAL TIME COMPLETED         9.40    
  
  
  
  
                                       N O D E   O U T P U T
  
  
  
  
   THE FOLLOWING TABLE IS PRINTED FOR NODES BELONGING TO NODE SET REF_NODE
  
       NODE FOOT-  U1             U2             U3             UR1            UR2            UR3          
            NOTE
  
   10000000      4.8000000E-02 -7.6600000E-02 -2.8620000E-01 -8.3764676E-06 -5.8788360E-04  5.9737294E-05
  
  
  
   THE FOLLOWING TABLE IS PRINTED FOR NODES BELONGING TO NODE SET REF_NODE
  
       NODE FOOT-  RF1            RF2            RF3            RM1            RM2            RM3          
            NOTE
  
   10000000      1.0323047E+03 -2.7736632E+03 -3.3105284E+03 -5.1644850E+03 -4.2841041E+03 -1.0721524E+04
  
  
  
   THE FOLLOWING TABLE IS PRINTED FOR NODES BELONGING TO NODE SET REF_NODE
  
       NODE FOOT-  CF1            CF2            CF3            CM1            CM2            CM3          
            NOTE
  
  ALL VALUES IN THIS TABLE ARE ZERO


                                INCREMENT     9 SUMMARY


 TIME INCREMENT COMPLETED  5.000E-02,  FRACTION OF STEP COMPLETED  0.450    
 STEP TIME COMPLETED       0.450    ,  TOTAL TIME COMPLETED         9.45    
  
  
  
  
                                       N O D E   O U T P U T
  
  
  
  
   THE FOLLOWING TABLE IS PRINTED FOR NODES BELONGING TO NODE SET REF_NODE
  
       NODE FOOT-  U1             U2             U3             UR1            UR2            UR3          
            NOTE
  
   10000000      4.8250000E-02 -7.3300000E-02 -2.9085000E-01 -8.3749742E-06 -5.3788360E-04  5.9737503E-05
  
  
  
   THE FOLLOWING TABLE IS PRINTED FOR NODES BELONGING TO NODE SET REF_NODE
  
       NODE FOOT-  RF1            RF2            RF3            RM1            RM2            RM3          
            NOTE
  
   10000000      1.0273679E+03 -2.6865570E+03 -3.5211642E+03 -5.4057715E+03 -3.7635436E+03 -1.0533999E+04
  
  
  
   THE FOLLOWING TABLE IS PRINTED FOR NODES BELONGING TO NODE SET REF_NODE
  
       NODE FOOT-  CF1            CF2            CF3            CM1            CM2            CM3          
            NOTE
  
  ALL VALUES IN THIS TABLE ARE ZERO


                                INCREMENT    10 SUMMARY


 TIME INCREMENT COMPLETED  5.000E-02,  FRACTION OF STEP COMPLETED  0.500    
 STEP TIME COMPLETED       0.500    ,  TOTAL TIME COMPLETED         9.50    
  
  
  
  
                                       N O D E   O U T P U T
  
  
  
  
   THE FOLLOWING TABLE IS PRINTED FOR NODES BELONGING TO NODE SET REF_NODE
  
       NODE FOOT-  U1             U2             U3             UR1            UR2            UR3          
            NOTE
  
   10000000      4.8500000E-02 -7.0000000E-02 -2.9550000E-01 -8.3734807E-06 -4.8788360E-04  5.9737712E-05
  
  
  
   THE FOLLOWING TABLE IS PRINTED FOR NODES BELONGING TO NODE SET REF_NODE
  
       NODE FOOT-  RF1            RF2            RF3            RM1            RM2            RM3          
            NOTE
  
   10000000      1.0220976E+03 -2.6020926E+03 -3.7263903E+03 -5.6353057E+03 -3.2474249E+03 -1.0346817E+04
  
  
  
   THE FOLLOWING TABLE IS PRINTED FOR NODES BELONGING TO NODE SET REF_NODE
  
       NODE FOOT-  CF1            CF2            CF3            CM1            CM2            CM3          
            NOTE
  
  ALL VALUES IN THIS TABLE ARE ZERO


                                INCREMENT    11 SUMMARY


 TIME INCREMENT COMPLETED  5.000E-02,  FRACTION OF STEP COMPLETED  0.550    
 STEP TIME COMPLETED       0.550    ,  TOTAL TIME COMPLETED         9.55    
  
  
  
  
                                       N O D E   O U T P U T
  
  
  
  
   THE FOLLOWING TABLE IS PRINTED FOR NODES BELONGING TO NODE SET REF_NODE
  
       NODE FOOT-  U1             U2             U3             UR1            UR2            UR3          
            NOTE
  
   10000000      4.8750000E-02 -6.6700000E-02 -3.0015000E-01 -8.3719872E-06 -4.3788360E-04  5.9737921E-05
  
  
  
   THE FOLLOWING TABLE IS PRINTED FOR NODES BELONGING TO NODE SET REF_NODE
  
       NODE FOOT-  RF1            RF2            RF3            RM1            RM2            RM3          
            NOTE
  
   10000000      1.0165175E+03 -2.5199943E+03 -3.9261917E+03 -5.8531228E+03 -2.7367432E+03 -1.0159463E+04
  
  
  
   THE FOLLOWING TABLE IS PRINTED FOR NODES BELONGING TO NODE SET REF_NODE
  
       NODE FOOT-  CF1            CF2            CF3            CM1            CM2            CM3          
            NOTE
  
  ALL VALUES IN THIS TABLE ARE ZERO


                                INCREMENT    12 SUMMARY


 TIME INCREMENT COMPLETED  5.000E-02,  FRACTION OF STEP COMPLETED  0.600    
 STEP TIME COMPLETED       0.600    ,  TOTAL TIME COMPLETED         9.60    
  
  
  
  
                                       N O D E   O U T P U T
  
  
  
  
   THE FOLLOWING TABLE IS PRINTED FOR NODES BELONGING TO NODE SET REF_NODE
  
       NODE FOOT-  U1             U2             U3             UR1            UR2            UR3          
            NOTE
  
   10000000      4.9000000E-02 -6.3400000E-02 -3.0480000E-01 -8.3704938E-06 -3.8788360E-04  5.9738130E-05
  
  
  
   THE FOLLOWING TABLE IS PRINTED FOR NODES BELONGING TO NODE SET REF_NODE
  
       NODE FOOT-  RF1            RF2            RF3            RM1            RM2            RM3          
            NOTE
  
   10000000      1.0106524E+03 -2.4400655E+03 -4.1205569E+03 -6.0591833E+03 -2.2323200E+03 -9.9716974E+03
  
  
  
   THE FOLLOWING TABLE IS PRINTED FOR NODES BELONGING TO NODE SET REF_NODE
  
       NODE FOOT-  CF1            CF2            CF3            CM1            CM2            CM3          
            NOTE
  
  ALL VALUES IN THIS TABLE ARE ZERO


                                INCREMENT    13 SUMMARY


 TIME INCREMENT COMPLETED  5.000E-02,  FRACTION OF STEP COMPLETED  0.650    
 STEP TIME COMPLETED       0.650    ,  TOTAL TIME COMPLETED         9.65    
  
  
  
  
                                       N O D E   O U T P U T
  
  
  
  
   THE FOLLOWING TABLE IS PRINTED FOR NODES BELONGING TO NODE SET REF_NODE
  
       NODE FOOT-  U1             U2             U3             UR1            UR2            UR3          
            NOTE
  
   10000000      4.9250000E-02 -6.0100000E-02 -3.0945000E-01 -8.3690003E-06 -3.3788360E-04  5.9738340E-05
  
  
  
   THE FOLLOWING TABLE IS PRINTED FOR NODES BELONGING TO NODE SET REF_NODE
  
       NODE FOOT-  RF1            RF2            RF3            RM1            RM2            RM3          
            NOTE
  
   10000000      1.0045270E+03 -2.3621623E+03 -4.3094972E+03 -6.2533332E+03 -1.7347333E+03 -9.7834664E+03
  
  
  
   THE FOLLOWING TABLE IS PRINTED FOR NODES BELONGING TO NODE SET REF_NODE
  
       NODE FOOT-  CF1            CF2            CF3            CM1            CM2            CM3          
            NOTE
  
  ALL VALUES IN THIS TABLE ARE ZERO


                                INCREMENT    14 SUMMARY


 TIME INCREMENT COMPLETED  5.000E-02,  FRACTION OF STEP COMPLETED  0.700    
 STEP TIME COMPLETED       0.700    ,  TOTAL TIME COMPLETED         9.70    
  
  
  
  
                                       N O D E   O U T P U T
  
  
  
  
   THE FOLLOWING TABLE IS PRINTED FOR NODES BELONGING TO NODE SET REF_NODE
  
       NODE FOOT-  U1             U2             U3             UR1            UR2            UR3          
            NOTE
  
   10000000      4.9500000E-02 -5.6800000E-02 -3.1410000E-01 -8.3675068E-06 -2.8788360E-04  5.9738549E-05
  
  
  
   THE FOLLOWING TABLE IS PRINTED FOR NODES BELONGING TO NODE SET REF_NODE
  
       NODE FOOT-  RF1            RF2            RF3            RM1            RM2            RM3          
            NOTE
  
   10000000      9.9816556E+02 -2.2861772E+03 -4.4930496E+03 -6.4352800E+03 -1.2442864E+03 -9.5948399E+03
  
  
  
   THE FOLLOWING TABLE IS PRINTED FOR NODES BELONGING TO NODE SET REF_NODE
  
       NODE FOOT-  CF1            CF2            CF3            CM1            CM2            CM3          
            NOTE
  
  ALL VALUES IN THIS TABLE ARE ZERO


                                INCREMENT    15 SUMMARY


 TIME INCREMENT COMPLETED  5.000E-02,  FRACTION OF STEP COMPLETED  0.750    
 STEP TIME COMPLETED       0.750    ,  TOTAL TIME COMPLETED         9.75    
  
  
  
  
                                       N O D E   O U T P U T
  
  
  
  
   THE FOLLOWING TABLE IS PRINTED FOR NODES BELONGING TO NODE SET REF_NODE
  
       NODE FOOT-  U1             U2             U3             UR1            UR2            UR3          
            NOTE
  
   10000000      4.9750000E-02 -5.3500000E-02 -3.1875000E-01 -8.3660134E-06 -2.3788360E-04  5.9738758E-05
  
  
  
   THE FOLLOWING TABLE IS PRINTED FOR NODES BELONGING TO NODE SET REF_NODE
  
       NODE FOOT-  RF1            RF2            RF3            RM1            RM2            RM3          
            NOTE
  
   10000000      9.9159161E+02 -2.2120295E+03 -4.6712762E+03 -6.6046212E+03 -7.6096833E+02 -9.4059772E+03
  
  
  
   THE FOLLOWING TABLE IS PRINTED FOR NODES BELONGING TO NODE SET REF_NODE
  
       NODE FOOT-  CF1            CF2            CF3            CM1            CM2            CM3          
            NOTE
  
  ALL VALUES IN THIS TABLE ARE ZERO


                                INCREMENT    16 SUMMARY


 TIME INCREMENT COMPLETED  5.000E-02,  FRACTION OF STEP COMPLETED  0.800    
 STEP TIME COMPLETED       0.800    ,  TOTAL TIME COMPLETED         9.80    
  
  
  
  
                                       N O D E   O U T P U T
  
  
  
  
   THE FOLLOWING TABLE IS PRINTED FOR NODES BELONGING TO NODE SET REF_NODE
  
       NODE FOOT-  U1             U2             U3             UR1            UR2            UR3          
            NOTE
  
   10000000      5.0000000E-02 -5.0200000E-02 -3.2340000E-01 -8.3645199E-06 -1.8788360E-04  5.9738967E-05
  
  
  
   THE FOLLOWING TABLE IS PRINTED FOR NODES BELONGING TO NODE SET REF_NODE
  
       NODE FOOT-  RF1            RF2            RF3            RM1            RM2            RM3          
            NOTE
  
   10000000      9.8482814E+02 -2.1396601E+03 -4.8442673E+03 -6.7609360E+03 -2.8439919E+02 -9.2170871E+03
  
  
  
   THE FOLLOWING TABLE IS PRINTED FOR NODES BELONGING TO NODE SET REF_NODE
  
       NODE FOOT-  CF1            CF2            CF3            CM1            CM2            CM3          
            NOTE
  
  ALL VALUES IN THIS TABLE ARE ZERO


                                INCREMENT    17 SUMMARY


 TIME INCREMENT COMPLETED  5.000E-02,  FRACTION OF STEP COMPLETED  0.850    
 STEP TIME COMPLETED       0.850    ,  TOTAL TIME COMPLETED         9.85    
  
  
  
  
                                       N O D E   O U T P U T
  
  
  
  
   THE FOLLOWING TABLE IS PRINTED FOR NODES BELONGING TO NODE SET REF_NODE
  
       NODE FOOT-  U1             U2             U3             UR1            UR2            UR3          
            NOTE
  
   10000000      5.0250000E-02 -4.6900000E-02 -3.2805000E-01 -8.3630264E-06 -1.3788360E-04  5.9739176E-05
  
  
  
   THE FOLLOWING TABLE IS PRINTED FOR NODES BELONGING TO NODE SET REF_NODE
  
       NODE FOOT-  RF1            RF2            RF3            RM1            RM2            RM3          
            NOTE
  
   10000000      9.7789784E+02 -2.0690253E+03 -5.0121484E+03 -6.9039103E+03  1.8619557E+02 -9.0283681E+03
  
  
  
   THE FOLLOWING TABLE IS PRINTED FOR NODES BELONGING TO NODE SET REF_NODE
  
       NODE FOOT-  CF1            CF2            CF3            CM1            CM2            CM3          
            NOTE
  
  ALL VALUES IN THIS TABLE ARE ZERO


                                INCREMENT    18 SUMMARY


 TIME INCREMENT COMPLETED  5.000E-02,  FRACTION OF STEP COMPLETED  0.900    
 STEP TIME COMPLETED       0.900    ,  TOTAL TIME COMPLETED         9.90    
  
  
  
  
                                       N O D E   O U T P U T
  
  
  
  
   THE FOLLOWING TABLE IS PRINTED FOR NODES BELONGING TO NODE SET REF_NODE
  
       NODE FOOT-  U1             U2             U3             UR1            UR2            UR3          
            NOTE
  
   10000000      5.0500000E-02 -4.3600000E-02 -3.3270000E-01 -8.3615329E-06 -8.7883604E-05  5.9739385E-05
  
  
  
   THE FOLLOWING TABLE IS PRINTED FOR NODES BELONGING TO NODE SET REF_NODE
  
       NODE FOOT-  RF1            RF2            RF3            RM1            RM2            RM3          
            NOTE
  
   10000000      9.7082273E+02 -2.0000886E+03 -5.1750857E+03 -7.0334389E+03  6.5191163E+02 -8.8399366E+03
  
  
  
   THE FOLLOWING TABLE IS PRINTED FOR NODES BELONGING TO NODE SET REF_NODE
  
       NODE FOOT-  CF1            CF2            CF3            CM1            CM2            CM3          
            NOTE
  
  ALL VALUES IN THIS TABLE ARE ZERO


                                INCREMENT    19 SUMMARY


 TIME INCREMENT COMPLETED  5.000E-02,  FRACTION OF STEP COMPLETED  0.950    
 STEP TIME COMPLETED       0.950    ,  TOTAL TIME COMPLETED         9.95    
  
  
  
  
                                       N O D E   O U T P U T
  
  
  
  
   THE FOLLOWING TABLE IS PRINTED FOR NODES BELONGING TO NODE SET REF_NODE
  
       NODE FOOT-  U1             U2             U3             UR1            UR2            UR3          
            NOTE
  
   10000000      5.0750000E-02 -4.0300000E-02 -3.3735000E-01 -8.3600394E-06 -3.7883604E-05  5.9739594E-05
  
  
  
   THE FOLLOWING TABLE IS PRINTED FOR NODES BELONGING TO NODE SET REF_NODE
  
       NODE FOOT-  RF1            RF2            RF3            RM1            RM2            RM3          
            NOTE
  
   10000000      9.6362326E+02 -1.9328126E+03 -5.3332823E+03 -7.1496671E+03  1.1139738E+03 -8.6517796E+03
  
  
  
   THE FOLLOWING TABLE IS PRINTED FOR NODES BELONGING TO NODE SET REF_NODE
  
       NODE FOOT-  CF1            CF2            CF3            CM1            CM2            CM3          
            NOTE
  
  ALL VALUES IN THIS TABLE ARE ZERO


                                INCREMENT    20 SUMMARY


 TIME INCREMENT COMPLETED  5.000E-02,  FRACTION OF STEP COMPLETED   1.00    
 STEP TIME COMPLETED        1.00    ,  TOTAL TIME COMPLETED         10.0    
  
  
  
  
                                       N O D E   O U T P U T
  
  
  
  
   THE FOLLOWING TABLE IS PRINTED FOR NODES BELONGING TO NODE SET REF_NODE
  
       NODE FOOT-  U1             U2             U3             UR1            UR2            UR3          
            NOTE
  
   10000000      5.1000000E-02 -3.7000000E-02 -3.4200000E-01 -8.3585459E-06  1.2116396E-05  5.9739803E-05
  
  
  
   THE FOLLOWING TABLE IS PRINTED FOR NODES BELONGING TO NODE SET REF_NODE
  
       NODE FOOT-  RF1            RF2            RF3            RM1            RM2            RM3          
            NOTE
  
   10000000      9.5631703E+02 -1.8671514E+03 -5.4869646E+03 -7.2529782E+03  1.5734947E+03 -8.4637575E+03
  
  
  
   THE FOLLOWING TABLE IS PRINTED FOR NODES BELONGING TO NODE SET REF_NODE
  
       NODE FOOT-  CF1            CF2            CF3            CM1            CM2            CM3          
            NOTE
  
  ALL VALUES IN THIS TABLE ARE ZERO


          THE ANALYSIS HAS BEEN COMPLETED



                              ANALYSIS COMPLETE
                              WITH    426 WARNING MESSAGES ON THE DAT FILE



     JOB TIME SUMMARY
       USER TIME (SEC)      =   287.12    
       SYSTEM TIME (SEC)    =   86.520    
       TOTAL CPU TIME (SEC) =   373.64    
       WALLCLOCK TIME (SEC) =         27
