1

   Abaqus 2021                                  Date 22-Feb-2023   Time 18:08:26
   For use by UNIVERSITAET BERN under license from Dassault Systemes or its subsidiary.

                                                                                 
                                                                                 
 STEP    1     INCREMENT     1     STEP TIME    0.00    


                        S T E P       1     S T A T I C   A N A L Y S I S


                                                                                          

     AUTOMATIC TIME CONTROL WITH -
          A SUGGESTED INITIAL TIME INCREMENT OF                5.000E-02
          AND A TOTAL TIME PERIOD OF                            1.00    
          THE MINIMUM TIME INCREMENT ALLOWED IS                5.000E-05
          THE MAXIMUM TIME INCREMENT ALLOWED IS                5.000E-02

     LINEAR EQUATION SOLVER TYPE         DIRECT SPARSE

 CONVERGENCE TOLERANCE PARAMETERS FOR FORCE    
     CRITERION FOR RESIDUAL FORCE     FOR A NONLINEAR PROBLEM          5.000E-03
     CRITERION FOR DISP.    CORRECTION IN A NONLINEAR PROBLEM          1.000E-02
     INITIAL VALUE OF TIME AVERAGE FORCE                               1.000E-02
     AVERAGE FORCE     IS TIME AVERAGE FORCE    
     ALTERNATE CRIT. FOR RESIDUAL FORCE     FOR A NONLINEAR PROBLEM    2.000E-02
     CRITERION FOR ZERO FORCE     RELATIVE TO TIME AVRG. FORCE         1.000E-05
     CRITERION FOR RESIDUAL FORCE     WHEN THERE IS ZERO FLUX          1.000E-05
     CRITERION FOR DISP.    CORRECTION WHEN THERE IS ZERO FLUX         1.000E-03
     CRITERION FOR RESIDUAL FORCE     FOR A LINEAR INCREMENT           1.000E-08
     FIELD CONVERSION RATIO                                             1.00    
     CRITERION FOR ZERO FORCE     REL. TO TIME AVRG. MAX. FORCE        1.000E-05
     CRITERION FOR ZERO DISP.    RELATIVE TO CHARACTERISTIC LENGTH     1.000E-08

 CONVERGENCE TOLERANCE PARAMETERS FOR MOMENT   
     CRITERION FOR RESIDUAL MOMENT    FOR A NONLINEAR PROBLEM          5.000E-03
     CRITERION FOR ROTATION CORRECTION IN A NONLINEAR PROBLEM          1.000E-02
     INITIAL VALUE OF TIME AVERAGE MOMENT                              1.000E-02
     AVERAGE MOMENT    IS TIME AVERAGE MOMENT   
     ALTERNATE CRIT. FOR RESIDUAL MOMENT    FOR A NONLINEAR PROBLEM    2.000E-02
     CRITERION FOR ZERO MOMENT    RELATIVE TO TIME AVRG. MOMENT        1.000E-05
     CRITERION FOR RESIDUAL MOMENT    WHEN THERE IS ZERO FLUX          1.000E-05
     CRITERION FOR ROTATION CORRECTION WHEN THERE IS ZERO FLUX         1.000E-03
     CRITERION FOR RESIDUAL MOMENT    FOR A LINEAR INCREMENT           1.000E-08
     FIELD CONVERSION RATIO                                             1.00    
     CRITERION FOR ZERO MOMENT    REL. TO TIME AVRG. MAX. MOMENT       1.000E-05

     VOLUMETRIC STRAIN COMPATIBILITY TOLERANCE FOR HYBRID SOLIDS       1.000E-05
     AXIAL STRAIN COMPATIBILITY TOLERANCE FOR HYBRID BEAMS             1.000E-05
     TRANS. SHEAR STRAIN COMPATIBILITY TOLERANCE FOR HYBRID BEAMS      1.000E-05
     SOFT CONTACT CONSTRAINT COMPATIBILITY TOLERANCE FOR P>P0          5.000E-03
     SOFT CONTACT CONSTRAINT COMPATIBILITY TOLERANCE FOR P=0.0         0.100    
     CONTACT FORCE ERROR TOLERANCE FOR CONVERT SDI=YES                 1.00    
     DISPLACEMENT COMPATIBILITY TOLERANCE FOR DCOUP ELEMENTS           1.000E-05
     ROTATION COMPATIBILITY TOLERANCE FOR DCOUP ELEMENTS               1.000E-05

 EQUILIBRIUM WILL BE CHECKED FOR SEVERE DISCONTINUITY ITERATIONS

 TIME INCREMENTATION CONTROL PARAMETERS:
     FIRST EQUILIBRIUM ITERATION FOR CONSECUTIVE DIVERGENCE CHECK              4
     EQUILIBRIUM ITERATION AT WHICH LOG. CONVERGENCE RATE CHECK BEGINS         8
     EQUILIBRIUM ITERATION AFTER WHICH ALTERNATE RESIDUAL IS USED              9
     MAXIMUM EQUILIBRIUM ITERATIONS ALLOWED                                   16
     EQUILIBRIUM ITERATION COUNT FOR CUT-BACK IN NEXT INCREMENT               10
     MAXIMUM EQUILIB. ITERS IN TWO INCREMENTS FOR TIME INCREMENT INCREASE      4
     MAXIMUM ITERATIONS FOR SEVERE DISCONTINUITIES                            50
     MAXIMUM ATTEMPTS ALLOWED IN AN INCREMENT                                  5
     MAXIMUM DISCON. ITERS IN TWO INCREMENTS FOR TIME INCREMENT INCREASE      50
     MAXIMUM CONTACT AUGMENTATIONS FOR *SURFACE BEHAVIOR,AUGMENTED LAGRANGE   50
     CUT-BACK FACTOR AFTER DIVERGENCE                                 0.2500    
     CUT-BACK FACTOR FOR TOO SLOW CONVERGENCE                         0.5000    
     CUT-BACK FACTOR AFTER TOO MANY EQUILIBRIUM ITERATIONS            0.7500    
     CUT-BACK FACTOR AFTER TOO MANY SEVERE DISCONTINUITY ITERATIONS   0.2500    
     CUT-BACK FACTOR AFTER PROBLEMS IN ELEMENT ASSEMBLY               0.2500    
     INCREASE FACTOR AFTER TWO INCREMENTS THAT CONVERGE QUICKLY        1.500    
     MAX. TIME INCREMENT INCREASE FACTOR ALLOWED                       1.500    
     MAX. TIME INCREMENT INCREASE FACTOR ALLOWED (DYNAMICS)            1.250    
     MAX. TIME INCREMENT INCREASE FACTOR ALLOWED (DIFFUSION)           2.000    
     MINIMUM TIME INCREMENT RATIO FOR EXTRAPOLATION TO OCCUR          0.1000    
     MAX. RATIO OF TIME INCREMENT TO STABILITY LIMIT                   1.000    
     FRACTION OF STABILITY LIMIT FOR NEW TIME INCREMENT               0.9500    
     TIME INCREMENT INCREASE FACTOR BEFORE A TIME POINT                1.000    
     GLOBAL STABILIZATION CONTROL IS NOT USED

          PRINT OF INCREMENT NUMBER, TIME, ETC., EVERY    1  INCREMENTS

     THE MAXIMUM NUMBER OF INCREMENTS IN THIS STEP IS                    1000

          LARGE DISPLACEMENT THEORY WILL BE USED

          UNSYMMETRIC MATRIX STORAGE AND SOLUTION WILL BE USED

     LINEAR EXTRAPOLATION WILL BE USED

     CHARACTERISTIC ELEMENT LENGTH      1.23    

     DETAILS REGARDING ACTUAL SOLUTION WAVEFRONT REQUESTED

     DETAILED OUTPUT OF DIAGNOSTICS TO DATABASE REQUESTED

     PRINT OF INCREMENT NUMBER, TIME, ETC., TO THE MESSAGE FILE EVERY     1  INCREMENTS

     ELEMENT OPERATIONS WILL BE CARRIED OUT IN PARALLEL USING  42 PROCESSORS

     PARALLEL CONTACT TRACKING ENABLED


     COLLECTING MODEL CONSTRAINT INFORMATION FOR OVERCONSTRAINT CHECKS

     COLLECTING STEP CONSTRAINT INFORMATION FOR OVERCONSTRAINT CHECKS


  INCREMENT     1 STARTS. ATTEMPT NUMBER  1, TIME INCREMENT  5.000E-02
 
     INITIAL ELEMENT LOAD BALANCE
            PROCESS    1   THREAD     NUMBER OF ELEMENTS
                              1            9
                              2            9
                              3            9
                              4            9
                              5            9
                              6            9
                              7            9
                              8            9
                              9            9
                             10            9
                             11            9
                             12            9
                             13            18
                             14            9
                             15            9
                             16            9
                             17            18
                             18            9
                             19            9
                             20            9
                             21            9
                             22            9
                             23            9
                             24            10
                             25            9
                             26            9
                             27            9
                             28            9
                             29            9
                             30            9
                             31            9
                             32            0
                             33            9
                             34            9
                             35            9
                             36            9
                             37            9
                             38            9
                             39            9
                             40            9
                             41            9
                             42            18

  NUMBER OF EQUATIONS =      1335     NUMBER OF RHS =    1
  NUMBER OF FLOATING PT. OPERATIONS =  9.37E+06

  USING THE DIRECT SOLVER WITH  42 PROCESSORS

     CHECK POINT   START OF SOLVER    

     CHECK POINT  END OF SOLVER       

       ELAPSED USER TIME (SEC)      =   2.2000    
       ELAPSED SYSTEM TIME (SEC)    =  9.00000E-02
       ELAPSED TOTAL CPU TIME (SEC) =   2.2900    
       ELAPSED WALLCLOCK TIME (SEC) =          0

               CONVERGENCE CHECKS FOR EQUILIBRIUM ITERATION     1


 AVERAGE FORCE                       1.16       TIME AVG. FORCE        1.16    
 ALL FORCE     RESIDUALS ARE ZERO
 LARGEST INCREMENT OF DISP.         6.830E-03   AT NODE        686   DOF  3
 LARGEST CORRECTION TO DISP.        6.830E-03   AT NODE        686   DOF  3
          THE FORCE     EQUILIBRIUM RESPONSE WAS LINEAR IN THIS INCREMENT

 AVERAGE MOMENT                      0.00       TIME AVG. MOMENT       1.43    
                                                (FROM FORCE     FIELD)
 ALL MOMENT    RESIDUALS ARE ZERO
 LARGEST INCREMENT OF ROTATION      4.500E-04   AT NODE        148   DOF  5
 LARGEST CORRECTION TO ROTATION     4.500E-04   AT NODE        148   DOF  5
          THERE IS ZERO MOMENT    EVERYWHERE

 ITERATION SUMMARY FOR THE INCREMENT:   1 TOTAL ITERATIONS, OF WHICH
   0 ARE SEVERE DISCONTINUITY ITERATIONS AND  1 ARE EQUILIBRIUM ITERATIONS.

 TIME INCREMENT COMPLETED  5.000E-02,  FRACTION OF STEP COMPLETED  5.000E-02
 STEP TIME COMPLETED       5.000E-02,  TOTAL TIME COMPLETED        5.000E-02


  INCREMENT     2 STARTS. ATTEMPT NUMBER  1, TIME INCREMENT  5.000E-02

  NUMBER OF EQUATIONS =      1335     NUMBER OF RHS =    1
  NUMBER OF FLOATING PT. OPERATIONS =  9.37E+06

  USING THE DIRECT SOLVER WITH  42 PROCESSORS

     CHECK POINT   START OF SOLVER    

     CHECK POINT  END OF SOLVER       

       ELAPSED USER TIME (SEC)      =  0.34000    
       ELAPSED SYSTEM TIME (SEC)    =  0.17000    
       ELAPSED TOTAL CPU TIME (SEC) =  0.51000    
       ELAPSED WALLCLOCK TIME (SEC) =          0

               CONVERGENCE CHECKS FOR EQUILIBRIUM ITERATION     1


 AVERAGE FORCE                       2.02       TIME AVG. FORCE        1.59    
 ALL FORCE     RESIDUALS ARE ZERO
 LARGEST INCREMENT OF DISP.         6.830E-03   AT NODE        686   DOF  3
 LARGEST CORRECTION TO DISP.       -3.022E-06   AT NODE        538   DOF  1
          THE FORCE     EQUILIBRIUM RESPONSE WAS LINEAR IN THIS INCREMENT

 AVERAGE MOMENT                      0.00       TIME AVG. MOMENT       1.43    
                                                (FROM FORCE     FIELD)
 ALL MOMENT    RESIDUALS ARE ZERO
 LARGEST INCREMENT OF ROTATION      4.500E-04   AT NODE        148   DOF  5
 LARGEST CORRECTION TO ROTATION    -1.084E-19   AT NODE        148   DOF  5
          THERE IS ZERO MOMENT    EVERYWHERE

 ITERATION SUMMARY FOR THE INCREMENT:   1 TOTAL ITERATIONS, OF WHICH
   0 ARE SEVERE DISCONTINUITY ITERATIONS AND  1 ARE EQUILIBRIUM ITERATIONS.

 TIME INCREMENT COMPLETED  5.000E-02,  FRACTION OF STEP COMPLETED  0.100    
 STEP TIME COMPLETED       0.100    ,  TOTAL TIME COMPLETED        0.100    


  INCREMENT     3 STARTS. ATTEMPT NUMBER  1, TIME INCREMENT  5.000E-02

  NUMBER OF EQUATIONS =      1335     NUMBER OF RHS =    1
  NUMBER OF FLOATING PT. OPERATIONS =  9.37E+06

  USING THE DIRECT SOLVER WITH  42 PROCESSORS

     CHECK POINT   START OF SOLVER    

     CHECK POINT  END OF SOLVER       

       ELAPSED USER TIME (SEC)      =  0.36000    
       ELAPSED SYSTEM TIME (SEC)    =  0.11000    
       ELAPSED TOTAL CPU TIME (SEC) =  0.47000    
       ELAPSED WALLCLOCK TIME (SEC) =          0

               CONVERGENCE CHECKS FOR EQUILIBRIUM ITERATION     1


 AVERAGE FORCE                       2.71       TIME AVG. FORCE        1.96    
 ALL FORCE     RESIDUALS ARE ZERO
 LARGEST INCREMENT OF DISP.         6.830E-03   AT NODE        686   DOF  3
 LARGEST CORRECTION TO DISP.       -3.022E-06   AT NODE        538   DOF  1
          THE FORCE     EQUILIBRIUM RESPONSE WAS LINEAR IN THIS INCREMENT

 AVERAGE MOMENT                      0.00       TIME AVG. MOMENT       1.96    
                                                (FROM FORCE     FIELD)
 ALL MOMENT    RESIDUALS ARE ZERO
 LARGEST INCREMENT OF ROTATION      4.500E-04   AT NODE        148   DOF  5
 LARGEST CORRECTION TO ROTATION     3.253E-19   AT NODE        148   DOF  5
          THERE IS ZERO MOMENT    EVERYWHERE

 ITERATION SUMMARY FOR THE INCREMENT:   1 TOTAL ITERATIONS, OF WHICH
   0 ARE SEVERE DISCONTINUITY ITERATIONS AND  1 ARE EQUILIBRIUM ITERATIONS.

 TIME INCREMENT COMPLETED  5.000E-02,  FRACTION OF STEP COMPLETED  0.150    
 STEP TIME COMPLETED       0.150    ,  TOTAL TIME COMPLETED        0.150    


  INCREMENT     4 STARTS. ATTEMPT NUMBER  1, TIME INCREMENT  5.000E-02

  NUMBER OF EQUATIONS =      1335     NUMBER OF RHS =    1
  NUMBER OF FLOATING PT. OPERATIONS =  9.37E+06

  USING THE DIRECT SOLVER WITH  42 PROCESSORS

     CHECK POINT   START OF SOLVER    

     CHECK POINT  END OF SOLVER       

       ELAPSED USER TIME (SEC)      =  0.27000    
       ELAPSED SYSTEM TIME (SEC)    =  0.13000    
       ELAPSED TOTAL CPU TIME (SEC) =  0.40000    
       ELAPSED WALLCLOCK TIME (SEC) =          0

               CONVERGENCE CHECKS FOR EQUILIBRIUM ITERATION     1


 AVERAGE FORCE                       3.31       TIME AVG. FORCE        2.30    
 ALL FORCE     RESIDUALS ARE ZERO
 LARGEST INCREMENT OF DISP.         6.830E-03   AT NODE        686   DOF  3
 LARGEST CORRECTION TO DISP.       -3.022E-06   AT NODE        538   DOF  1
          THE FORCE     EQUILIBRIUM RESPONSE WAS LINEAR IN THIS INCREMENT

 AVERAGE MOMENT                      0.00       TIME AVG. MOMENT       2.42    
                                                (FROM FORCE     FIELD)
 ALL MOMENT    RESIDUALS ARE ZERO
 LARGEST INCREMENT OF ROTATION      4.500E-04   AT NODE        148   DOF  5
 LARGEST CORRECTION TO ROTATION    -7.589E-19   AT NODE        148   DOF  5
          THERE IS ZERO MOMENT    EVERYWHERE

 ITERATION SUMMARY FOR THE INCREMENT:   1 TOTAL ITERATIONS, OF WHICH
   0 ARE SEVERE DISCONTINUITY ITERATIONS AND  1 ARE EQUILIBRIUM ITERATIONS.

 TIME INCREMENT COMPLETED  5.000E-02,  FRACTION OF STEP COMPLETED  0.200    
 STEP TIME COMPLETED       0.200    ,  TOTAL TIME COMPLETED        0.200    


  INCREMENT     5 STARTS. ATTEMPT NUMBER  1, TIME INCREMENT  5.000E-02

  NUMBER OF EQUATIONS =      1335     NUMBER OF RHS =    1
  NUMBER OF FLOATING PT. OPERATIONS =  9.37E+06

  USING THE DIRECT SOLVER WITH  42 PROCESSORS

     CHECK POINT   START OF SOLVER    

     CHECK POINT  END OF SOLVER       

       ELAPSED USER TIME (SEC)      =  0.28000    
       ELAPSED SYSTEM TIME (SEC)    =  0.11000    
       ELAPSED TOTAL CPU TIME (SEC) =  0.39000    
       ELAPSED WALLCLOCK TIME (SEC) =          0

               CONVERGENCE CHECKS FOR EQUILIBRIUM ITERATION     1


 AVERAGE FORCE                       3.88       TIME AVG. FORCE        2.62    
 ALL FORCE     RESIDUALS ARE ZERO
 LARGEST INCREMENT OF DISP.         6.829E-03   AT NODE        686   DOF  3
 LARGEST CORRECTION TO DISP.       -3.022E-06   AT NODE        538   DOF  1
          THE FORCE     EQUILIBRIUM RESPONSE WAS LINEAR IN THIS INCREMENT

 AVERAGE MOMENT                      0.00       TIME AVG. MOMENT       2.84    
                                                (FROM FORCE     FIELD)
 ALL MOMENT    RESIDUALS ARE ZERO
 LARGEST INCREMENT OF ROTATION      4.500E-04   AT NODE        148   DOF  5
 LARGEST CORRECTION TO ROTATION     4.337E-19   AT NODE        148   DOF  5
          THERE IS ZERO MOMENT    EVERYWHERE

 ITERATION SUMMARY FOR THE INCREMENT:   1 TOTAL ITERATIONS, OF WHICH
   0 ARE SEVERE DISCONTINUITY ITERATIONS AND  1 ARE EQUILIBRIUM ITERATIONS.

 TIME INCREMENT COMPLETED  5.000E-02,  FRACTION OF STEP COMPLETED  0.250    
 STEP TIME COMPLETED       0.250    ,  TOTAL TIME COMPLETED        0.250    


  INCREMENT     6 STARTS. ATTEMPT NUMBER  1, TIME INCREMENT  5.000E-02

  NUMBER OF EQUATIONS =      1335     NUMBER OF RHS =    1
  NUMBER OF FLOATING PT. OPERATIONS =  9.37E+06

  USING THE DIRECT SOLVER WITH  42 PROCESSORS

     CHECK POINT   START OF SOLVER    

     CHECK POINT  END OF SOLVER       

       ELAPSED USER TIME (SEC)      =  0.28000    
       ELAPSED SYSTEM TIME (SEC)    =  0.11000    
       ELAPSED TOTAL CPU TIME (SEC) =  0.39000    
       ELAPSED WALLCLOCK TIME (SEC) =          0

               CONVERGENCE CHECKS FOR EQUILIBRIUM ITERATION     1


 AVERAGE FORCE                       4.42       TIME AVG. FORCE        2.92    
 ALL FORCE     RESIDUALS ARE ZERO
 LARGEST INCREMENT OF DISP.         6.829E-03   AT NODE        686   DOF  3
 LARGEST CORRECTION TO DISP.       -3.022E-06   AT NODE        538   DOF  1
          THE FORCE     EQUILIBRIUM RESPONSE WAS LINEAR IN THIS INCREMENT

 AVERAGE MOMENT                      0.00       TIME AVG. MOMENT       3.23    
                                                (FROM FORCE     FIELD)
 ALL MOMENT    RESIDUALS ARE ZERO
 LARGEST INCREMENT OF ROTATION      4.500E-04   AT NODE        148   DOF  5
 LARGEST CORRECTION TO ROTATION     5.421E-20   AT NODE        148   DOF  6
          THERE IS ZERO MOMENT    EVERYWHERE

 ITERATION SUMMARY FOR THE INCREMENT:   1 TOTAL ITERATIONS, OF WHICH
   0 ARE SEVERE DISCONTINUITY ITERATIONS AND  1 ARE EQUILIBRIUM ITERATIONS.

 TIME INCREMENT COMPLETED  5.000E-02,  FRACTION OF STEP COMPLETED  0.300    
 STEP TIME COMPLETED       0.300    ,  TOTAL TIME COMPLETED        0.300    


  INCREMENT     7 STARTS. ATTEMPT NUMBER  1, TIME INCREMENT  5.000E-02

  NUMBER OF EQUATIONS =      1335     NUMBER OF RHS =    1
  NUMBER OF FLOATING PT. OPERATIONS =  9.37E+06

  USING THE DIRECT SOLVER WITH  42 PROCESSORS

     CHECK POINT   START OF SOLVER    

     CHECK POINT  END OF SOLVER       

       ELAPSED USER TIME (SEC)      =  0.27000    
       ELAPSED SYSTEM TIME (SEC)    =  0.10000    
       ELAPSED TOTAL CPU TIME (SEC) =  0.37000    
       ELAPSED WALLCLOCK TIME (SEC) =          0

               CONVERGENCE CHECKS FOR EQUILIBRIUM ITERATION     1


 AVERAGE FORCE                       4.94       TIME AVG. FORCE        3.21    
 ALL FORCE     RESIDUALS ARE ZERO
 LARGEST INCREMENT OF DISP.         6.829E-03   AT NODE        686   DOF  3
 LARGEST CORRECTION TO DISP.       -3.022E-06   AT NODE        538   DOF  1
          THE FORCE     EQUILIBRIUM RESPONSE WAS LINEAR IN THIS INCREMENT

 AVERAGE MOMENT                      0.00       TIME AVG. MOMENT       3.60    
                                                (FROM FORCE     FIELD)
 ALL MOMENT    RESIDUALS ARE ZERO
 LARGEST INCREMENT OF ROTATION      4.500E-04   AT NODE        148   DOF  5
 LARGEST CORRECTION TO ROTATION    -1.084E-19   AT NODE        148   DOF  6
          THERE IS ZERO MOMENT    EVERYWHERE

 ITERATION SUMMARY FOR THE INCREMENT:   1 TOTAL ITERATIONS, OF WHICH
   0 ARE SEVERE DISCONTINUITY ITERATIONS AND  1 ARE EQUILIBRIUM ITERATIONS.

 TIME INCREMENT COMPLETED  5.000E-02,  FRACTION OF STEP COMPLETED  0.350    
 STEP TIME COMPLETED       0.350    ,  TOTAL TIME COMPLETED        0.350    


  INCREMENT     8 STARTS. ATTEMPT NUMBER  1, TIME INCREMENT  5.000E-02

  NUMBER OF EQUATIONS =      1335     NUMBER OF RHS =    1
  NUMBER OF FLOATING PT. OPERATIONS =  9.37E+06

  USING THE DIRECT SOLVER WITH  42 PROCESSORS

     CHECK POINT   START OF SOLVER    

     CHECK POINT  END OF SOLVER       

       ELAPSED USER TIME (SEC)      =  0.25000    
       ELAPSED SYSTEM TIME (SEC)    =  9.00000E-02
       ELAPSED TOTAL CPU TIME (SEC) =  0.34000    
       ELAPSED WALLCLOCK TIME (SEC) =          0

               CONVERGENCE CHECKS FOR EQUILIBRIUM ITERATION     1


 AVERAGE FORCE                       5.45       TIME AVG. FORCE        3.49    
 ALL FORCE     RESIDUALS ARE ZERO
 LARGEST INCREMENT OF DISP.         6.829E-03   AT NODE        686   DOF  3
 LARGEST CORRECTION TO DISP.       -3.022E-06   AT NODE        538   DOF  1
          THE FORCE     EQUILIBRIUM RESPONSE WAS LINEAR IN THIS INCREMENT

 AVERAGE MOMENT                      0.00       TIME AVG. MOMENT       3.96    
                                                (FROM FORCE     FIELD)
 ALL MOMENT    RESIDUALS ARE ZERO
 LARGEST INCREMENT OF ROTATION      4.500E-04   AT NODE        148   DOF  5
 LARGEST CORRECTION TO ROTATION    -4.337E-19   AT NODE        148   DOF  5
          THERE IS ZERO MOMENT    EVERYWHERE

 ITERATION SUMMARY FOR THE INCREMENT:   1 TOTAL ITERATIONS, OF WHICH
   0 ARE SEVERE DISCONTINUITY ITERATIONS AND  1 ARE EQUILIBRIUM ITERATIONS.

 TIME INCREMENT COMPLETED  5.000E-02,  FRACTION OF STEP COMPLETED  0.400    
 STEP TIME COMPLETED       0.400    ,  TOTAL TIME COMPLETED        0.400    


  INCREMENT     9 STARTS. ATTEMPT NUMBER  1, TIME INCREMENT  5.000E-02

  NUMBER OF EQUATIONS =      1335     NUMBER OF RHS =    1
  NUMBER OF FLOATING PT. OPERATIONS =  9.37E+06

  USING THE DIRECT SOLVER WITH  42 PROCESSORS

     CHECK POINT   START OF SOLVER    

     CHECK POINT  END OF SOLVER       

       ELAPSED USER TIME (SEC)      =  0.26000    
       ELAPSED SYSTEM TIME (SEC)    =  0.10000    
       ELAPSED TOTAL CPU TIME (SEC) =  0.36000    
       ELAPSED WALLCLOCK TIME (SEC) =          0

               CONVERGENCE CHECKS FOR EQUILIBRIUM ITERATION     1


 AVERAGE FORCE                       5.96       TIME AVG. FORCE        3.76    
 ALL FORCE     RESIDUALS ARE ZERO
 LARGEST INCREMENT OF DISP.         6.829E-03   AT NODE        686   DOF  3
 LARGEST CORRECTION TO DISP.       -3.022E-06   AT NODE        538   DOF  1
          THE FORCE     EQUILIBRIUM RESPONSE WAS LINEAR IN THIS INCREMENT

 AVERAGE MOMENT                      0.00       TIME AVG. MOMENT       4.31    
                                                (FROM FORCE     FIELD)
 ALL MOMENT    RESIDUALS ARE ZERO
 LARGEST INCREMENT OF ROTATION      4.500E-04   AT NODE        148   DOF  5
 LARGEST CORRECTION TO ROTATION     8.674E-19   AT NODE        148   DOF  5
          THERE IS ZERO MOMENT    EVERYWHERE

 ITERATION SUMMARY FOR THE INCREMENT:   1 TOTAL ITERATIONS, OF WHICH
   0 ARE SEVERE DISCONTINUITY ITERATIONS AND  1 ARE EQUILIBRIUM ITERATIONS.

 TIME INCREMENT COMPLETED  5.000E-02,  FRACTION OF STEP COMPLETED  0.450    
 STEP TIME COMPLETED       0.450    ,  TOTAL TIME COMPLETED        0.450    


  INCREMENT    10 STARTS. ATTEMPT NUMBER  1, TIME INCREMENT  5.000E-02

  NUMBER OF EQUATIONS =      1335     NUMBER OF RHS =    1
  NUMBER OF FLOATING PT. OPERATIONS =  9.37E+06

  USING THE DIRECT SOLVER WITH  42 PROCESSORS

     CHECK POINT   START OF SOLVER    

     CHECK POINT  END OF SOLVER       

       ELAPSED USER TIME (SEC)      =  0.25000    
       ELAPSED SYSTEM TIME (SEC)    =  9.00000E-02
       ELAPSED TOTAL CPU TIME (SEC) =  0.34000    
       ELAPSED WALLCLOCK TIME (SEC) =          0

               CONVERGENCE CHECKS FOR EQUILIBRIUM ITERATION     1


 AVERAGE FORCE                       6.45       TIME AVG. FORCE        4.03    
 ALL FORCE     RESIDUALS ARE ZERO
 LARGEST INCREMENT OF DISP.         6.829E-03   AT NODE        686   DOF  3
 LARGEST CORRECTION TO DISP.       -3.022E-06   AT NODE        538   DOF  1
          THE FORCE     EQUILIBRIUM RESPONSE WAS LINEAR IN THIS INCREMENT

 AVERAGE MOMENT                      0.00       TIME AVG. MOMENT       4.65    
                                                (FROM FORCE     FIELD)
 ALL MOMENT    RESIDUALS ARE ZERO
 LARGEST INCREMENT OF ROTATION      4.500E-04   AT NODE        148   DOF  5
 LARGEST CORRECTION TO ROTATION    -4.337E-19   AT NODE        148   DOF  5
          THERE IS ZERO MOMENT    EVERYWHERE

 ITERATION SUMMARY FOR THE INCREMENT:   1 TOTAL ITERATIONS, OF WHICH
   0 ARE SEVERE DISCONTINUITY ITERATIONS AND  1 ARE EQUILIBRIUM ITERATIONS.

 TIME INCREMENT COMPLETED  5.000E-02,  FRACTION OF STEP COMPLETED  0.500    
 STEP TIME COMPLETED       0.500    ,  TOTAL TIME COMPLETED        0.500    


  INCREMENT    11 STARTS. ATTEMPT NUMBER  1, TIME INCREMENT  5.000E-02

  NUMBER OF EQUATIONS =      1335     NUMBER OF RHS =    1
  NUMBER OF FLOATING PT. OPERATIONS =  9.37E+06

  USING THE DIRECT SOLVER WITH  42 PROCESSORS

     CHECK POINT   START OF SOLVER    

     CHECK POINT  END OF SOLVER       

       ELAPSED USER TIME (SEC)      =  0.81000    
       ELAPSED SYSTEM TIME (SEC)    =  0.12000    
       ELAPSED TOTAL CPU TIME (SEC) =  0.93000    
       ELAPSED WALLCLOCK TIME (SEC) =          0

               CONVERGENCE CHECKS FOR EQUILIBRIUM ITERATION     1


 AVERAGE FORCE                       6.94       TIME AVG. FORCE        4.30    
 ALL FORCE     RESIDUALS ARE ZERO
 LARGEST INCREMENT OF DISP.         6.829E-03   AT NODE        686   DOF  3
 LARGEST CORRECTION TO DISP.       -3.022E-06   AT NODE        538   DOF  1
          THE FORCE     EQUILIBRIUM RESPONSE WAS LINEAR IN THIS INCREMENT

 AVERAGE MOMENT                      0.00       TIME AVG. MOMENT       4.98    
                                                (FROM FORCE     FIELD)
 ALL MOMENT    RESIDUALS ARE ZERO
 LARGEST INCREMENT OF ROTATION      4.500E-04   AT NODE        148   DOF  5
 LARGEST CORRECTION TO ROTATION     8.674E-19   AT NODE        148   DOF  5
          THERE IS ZERO MOMENT    EVERYWHERE

 ITERATION SUMMARY FOR THE INCREMENT:   1 TOTAL ITERATIONS, OF WHICH
   0 ARE SEVERE DISCONTINUITY ITERATIONS AND  1 ARE EQUILIBRIUM ITERATIONS.

 TIME INCREMENT COMPLETED  5.000E-02,  FRACTION OF STEP COMPLETED  0.550    
 STEP TIME COMPLETED       0.550    ,  TOTAL TIME COMPLETED        0.550    


  INCREMENT    12 STARTS. ATTEMPT NUMBER  1, TIME INCREMENT  5.000E-02

  NUMBER OF EQUATIONS =      1335     NUMBER OF RHS =    1
  NUMBER OF FLOATING PT. OPERATIONS =  9.37E+06

  USING THE DIRECT SOLVER WITH  42 PROCESSORS

     CHECK POINT   START OF SOLVER    

     CHECK POINT  END OF SOLVER       

       ELAPSED USER TIME (SEC)      =  0.27000    
       ELAPSED SYSTEM TIME (SEC)    =  0.10000    
       ELAPSED TOTAL CPU TIME (SEC) =  0.37000    
       ELAPSED WALLCLOCK TIME (SEC) =          0

               CONVERGENCE CHECKS FOR EQUILIBRIUM ITERATION     1


 AVERAGE FORCE                       7.43       TIME AVG. FORCE        4.56    
 ALL FORCE     RESIDUALS ARE ZERO
 LARGEST INCREMENT OF DISP.         6.828E-03   AT NODE        686   DOF  3
 LARGEST CORRECTION TO DISP.       -3.022E-06   AT NODE        538   DOF  1
          THE FORCE     EQUILIBRIUM RESPONSE WAS LINEAR IN THIS INCREMENT

 AVERAGE MOMENT                      0.00       TIME AVG. MOMENT       5.30    
                                                (FROM FORCE     FIELD)
 ALL MOMENT    RESIDUALS ARE ZERO
 LARGEST INCREMENT OF ROTATION      4.500E-04   AT NODE        148   DOF  5
 LARGEST CORRECTION TO ROTATION    -8.674E-19   AT NODE        148   DOF  5
          THERE IS ZERO MOMENT    EVERYWHERE

 ITERATION SUMMARY FOR THE INCREMENT:   1 TOTAL ITERATIONS, OF WHICH
   0 ARE SEVERE DISCONTINUITY ITERATIONS AND  1 ARE EQUILIBRIUM ITERATIONS.

 TIME INCREMENT COMPLETED  5.000E-02,  FRACTION OF STEP COMPLETED  0.600    
 STEP TIME COMPLETED       0.600    ,  TOTAL TIME COMPLETED        0.600    


  INCREMENT    13 STARTS. ATTEMPT NUMBER  1, TIME INCREMENT  5.000E-02

  NUMBER OF EQUATIONS =      1335     NUMBER OF RHS =    1
  NUMBER OF FLOATING PT. OPERATIONS =  9.37E+06

  USING THE DIRECT SOLVER WITH  42 PROCESSORS

     CHECK POINT   START OF SOLVER    

     CHECK POINT  END OF SOLVER       

       ELAPSED USER TIME (SEC)      =  0.27000    
       ELAPSED SYSTEM TIME (SEC)    =  0.10000    
       ELAPSED TOTAL CPU TIME (SEC) =  0.37000    
       ELAPSED WALLCLOCK TIME (SEC) =          0

               CONVERGENCE CHECKS FOR EQUILIBRIUM ITERATION     1


 AVERAGE FORCE                       7.91       TIME AVG. FORCE        4.82    
 ALL FORCE     RESIDUALS ARE ZERO
 LARGEST INCREMENT OF DISP.         6.828E-03   AT NODE        686   DOF  3
 LARGEST CORRECTION TO DISP.       -3.022E-06   AT NODE        538   DOF  1
          THE FORCE     EQUILIBRIUM RESPONSE WAS LINEAR IN THIS INCREMENT

 AVERAGE MOMENT                      0.00       TIME AVG. MOMENT       5.63    
                                                (FROM FORCE     FIELD)
 ALL MOMENT    RESIDUALS ARE ZERO
 LARGEST INCREMENT OF ROTATION      4.500E-04   AT NODE        148   DOF  5
 LARGEST CORRECTION TO ROTATION     8.674E-19   AT NODE        148   DOF  5
          THERE IS ZERO MOMENT    EVERYWHERE

 ITERATION SUMMARY FOR THE INCREMENT:   1 TOTAL ITERATIONS, OF WHICH
   0 ARE SEVERE DISCONTINUITY ITERATIONS AND  1 ARE EQUILIBRIUM ITERATIONS.

 TIME INCREMENT COMPLETED  5.000E-02,  FRACTION OF STEP COMPLETED  0.650    
 STEP TIME COMPLETED       0.650    ,  TOTAL TIME COMPLETED        0.650    


  INCREMENT    14 STARTS. ATTEMPT NUMBER  1, TIME INCREMENT  5.000E-02

  NUMBER OF EQUATIONS =      1335     NUMBER OF RHS =    1
  NUMBER OF FLOATING PT. OPERATIONS =  9.37E+06

  USING THE DIRECT SOLVER WITH  42 PROCESSORS

     CHECK POINT   START OF SOLVER    

     CHECK POINT  END OF SOLVER       

       ELAPSED USER TIME (SEC)      =  0.25000    
       ELAPSED SYSTEM TIME (SEC)    =  0.11000    
       ELAPSED TOTAL CPU TIME (SEC) =  0.36000    
       ELAPSED WALLCLOCK TIME (SEC) =          0

               CONVERGENCE CHECKS FOR EQUILIBRIUM ITERATION     1


 AVERAGE FORCE                       8.39       TIME AVG. FORCE        5.07    
 ALL FORCE     RESIDUALS ARE ZERO
 LARGEST INCREMENT OF DISP.         6.828E-03   AT NODE        686   DOF  3
 LARGEST CORRECTION TO DISP.       -3.021E-06   AT NODE        538   DOF  1
          THE FORCE     EQUILIBRIUM RESPONSE WAS LINEAR IN THIS INCREMENT

 AVERAGE MOMENT                      0.00       TIME AVG. MOMENT       5.95    
                                                (FROM FORCE     FIELD)
 ALL MOMENT    RESIDUALS ARE ZERO
 LARGEST INCREMENT OF ROTATION      4.500E-04   AT NODE        148   DOF  5
 LARGEST CORRECTION TO ROTATION    -8.674E-19   AT NODE        148   DOF  5
          THERE IS ZERO MOMENT    EVERYWHERE

 ITERATION SUMMARY FOR THE INCREMENT:   1 TOTAL ITERATIONS, OF WHICH
   0 ARE SEVERE DISCONTINUITY ITERATIONS AND  1 ARE EQUILIBRIUM ITERATIONS.

 TIME INCREMENT COMPLETED  5.000E-02,  FRACTION OF STEP COMPLETED  0.700    
 STEP TIME COMPLETED       0.700    ,  TOTAL TIME COMPLETED        0.700    


  INCREMENT    15 STARTS. ATTEMPT NUMBER  1, TIME INCREMENT  5.000E-02

  NUMBER OF EQUATIONS =      1335     NUMBER OF RHS =    1
  NUMBER OF FLOATING PT. OPERATIONS =  9.37E+06

  USING THE DIRECT SOLVER WITH  42 PROCESSORS

     CHECK POINT   START OF SOLVER    

     CHECK POINT  END OF SOLVER       

       ELAPSED USER TIME (SEC)      =  0.24000    
       ELAPSED SYSTEM TIME (SEC)    =  0.10000    
       ELAPSED TOTAL CPU TIME (SEC) =  0.34000    
       ELAPSED WALLCLOCK TIME (SEC) =          0

               CONVERGENCE CHECKS FOR EQUILIBRIUM ITERATION     1


 AVERAGE FORCE                       8.87       TIME AVG. FORCE        5.32    
 ALL FORCE     RESIDUALS ARE ZERO
 LARGEST INCREMENT OF DISP.         6.828E-03   AT NODE        686   DOF  3
 LARGEST CORRECTION TO DISP.       -3.021E-06   AT NODE        538   DOF  1
          THE FORCE     EQUILIBRIUM RESPONSE WAS LINEAR IN THIS INCREMENT

 AVERAGE MOMENT                      0.00       TIME AVG. MOMENT       6.26    
                                                (FROM FORCE     FIELD)
 ALL MOMENT    RESIDUALS ARE ZERO
 LARGEST INCREMENT OF ROTATION      4.500E-04   AT NODE        148   DOF  5
 LARGEST CORRECTION TO ROTATION     8.674E-19   AT NODE        148   DOF  5
          THERE IS ZERO MOMENT    EVERYWHERE

 ITERATION SUMMARY FOR THE INCREMENT:   1 TOTAL ITERATIONS, OF WHICH
   0 ARE SEVERE DISCONTINUITY ITERATIONS AND  1 ARE EQUILIBRIUM ITERATIONS.

 TIME INCREMENT COMPLETED  5.000E-02,  FRACTION OF STEP COMPLETED  0.750    
 STEP TIME COMPLETED       0.750    ,  TOTAL TIME COMPLETED        0.750    


  INCREMENT    16 STARTS. ATTEMPT NUMBER  1, TIME INCREMENT  5.000E-02

  NUMBER OF EQUATIONS =      1335     NUMBER OF RHS =    1
  NUMBER OF FLOATING PT. OPERATIONS =  9.37E+06

  USING THE DIRECT SOLVER WITH  42 PROCESSORS

     CHECK POINT   START OF SOLVER    

     CHECK POINT  END OF SOLVER       

       ELAPSED USER TIME (SEC)      =  0.29000    
       ELAPSED SYSTEM TIME (SEC)    =  9.00000E-02
       ELAPSED TOTAL CPU TIME (SEC) =  0.38000    
       ELAPSED WALLCLOCK TIME (SEC) =          0

               CONVERGENCE CHECKS FOR EQUILIBRIUM ITERATION     1


 AVERAGE FORCE                       9.34       TIME AVG. FORCE        5.57    
 ALL FORCE     RESIDUALS ARE ZERO
 LARGEST INCREMENT OF DISP.         6.828E-03   AT NODE        686   DOF  3
 LARGEST CORRECTION TO DISP.       -3.021E-06   AT NODE        538   DOF  1
          THE FORCE     EQUILIBRIUM RESPONSE WAS LINEAR IN THIS INCREMENT

 AVERAGE MOMENT                      0.00       TIME AVG. MOMENT       6.57    
                                                (FROM FORCE     FIELD)
 ALL MOMENT    RESIDUALS ARE ZERO
 LARGEST INCREMENT OF ROTATION      4.500E-04   AT NODE        148   DOF  5
 LARGEST CORRECTION TO ROTATION    -2.523E-31   AT NODE        148   DOF  5
          THERE IS ZERO MOMENT    EVERYWHERE

 ITERATION SUMMARY FOR THE INCREMENT:   1 TOTAL ITERATIONS, OF WHICH
   0 ARE SEVERE DISCONTINUITY ITERATIONS AND  1 ARE EQUILIBRIUM ITERATIONS.

 TIME INCREMENT COMPLETED  5.000E-02,  FRACTION OF STEP COMPLETED  0.800    
 STEP TIME COMPLETED       0.800    ,  TOTAL TIME COMPLETED        0.800    


  INCREMENT    17 STARTS. ATTEMPT NUMBER  1, TIME INCREMENT  5.000E-02

  NUMBER OF EQUATIONS =      1335     NUMBER OF RHS =    1
  NUMBER OF FLOATING PT. OPERATIONS =  9.37E+06

  USING THE DIRECT SOLVER WITH  42 PROCESSORS

     CHECK POINT   START OF SOLVER    

     CHECK POINT  END OF SOLVER       

       ELAPSED USER TIME (SEC)      =  0.35000    
       ELAPSED SYSTEM TIME (SEC)    =  3.00000E-02
       ELAPSED TOTAL CPU TIME (SEC) =  0.38000    
       ELAPSED WALLCLOCK TIME (SEC) =          0

               CONVERGENCE CHECKS FOR EQUILIBRIUM ITERATION     1


 AVERAGE FORCE                       9.81       TIME AVG. FORCE        5.82    
 ALL FORCE     RESIDUALS ARE ZERO
 LARGEST INCREMENT OF DISP.         6.828E-03   AT NODE        686   DOF  3
 LARGEST CORRECTION TO DISP.       -3.021E-06   AT NODE        538   DOF  1
          THE FORCE     EQUILIBRIUM RESPONSE WAS LINEAR IN THIS INCREMENT

 AVERAGE MOMENT                      0.00       TIME AVG. MOMENT       6.88    
                                                (FROM FORCE     FIELD)
 ALL MOMENT    RESIDUALS ARE ZERO
 LARGEST INCREMENT OF ROTATION      4.500E-04   AT NODE        148   DOF  5
 LARGEST CORRECTION TO ROTATION    -1.735E-18   AT NODE        148   DOF  5
          THERE IS ZERO MOMENT    EVERYWHERE

 ITERATION SUMMARY FOR THE INCREMENT:   1 TOTAL ITERATIONS, OF WHICH
   0 ARE SEVERE DISCONTINUITY ITERATIONS AND  1 ARE EQUILIBRIUM ITERATIONS.

 TIME INCREMENT COMPLETED  5.000E-02,  FRACTION OF STEP COMPLETED  0.850    
 STEP TIME COMPLETED       0.850    ,  TOTAL TIME COMPLETED        0.850    


  INCREMENT    18 STARTS. ATTEMPT NUMBER  1, TIME INCREMENT  5.000E-02

  NUMBER OF EQUATIONS =      1335     NUMBER OF RHS =    1
  NUMBER OF FLOATING PT. OPERATIONS =  9.37E+06

  USING THE DIRECT SOLVER WITH  42 PROCESSORS

     CHECK POINT   START OF SOLVER    

     CHECK POINT  END OF SOLVER       

       ELAPSED USER TIME (SEC)      =  0.24000    
       ELAPSED SYSTEM TIME (SEC)    =  0.10000    
       ELAPSED TOTAL CPU TIME (SEC) =  0.34000    
       ELAPSED WALLCLOCK TIME (SEC) =          0

               CONVERGENCE CHECKS FOR EQUILIBRIUM ITERATION     1


 AVERAGE FORCE                       10.3       TIME AVG. FORCE        6.07    
 ALL FORCE     RESIDUALS ARE ZERO
 LARGEST INCREMENT OF DISP.         6.827E-03   AT NODE        686   DOF  3
 LARGEST CORRECTION TO DISP.       -3.021E-06   AT NODE        538   DOF  1
          THE FORCE     EQUILIBRIUM RESPONSE WAS LINEAR IN THIS INCREMENT

 AVERAGE MOMENT                      0.00       TIME AVG. MOMENT       7.19    
                                                (FROM FORCE     FIELD)
 ALL MOMENT    RESIDUALS ARE ZERO
 LARGEST INCREMENT OF ROTATION      4.500E-04   AT NODE        148   DOF  5
 LARGEST CORRECTION TO ROTATION     1.735E-18   AT NODE        148   DOF  5
          THERE IS ZERO MOMENT    EVERYWHERE

 ITERATION SUMMARY FOR THE INCREMENT:   1 TOTAL ITERATIONS, OF WHICH
   0 ARE SEVERE DISCONTINUITY ITERATIONS AND  1 ARE EQUILIBRIUM ITERATIONS.

 TIME INCREMENT COMPLETED  5.000E-02,  FRACTION OF STEP COMPLETED  0.900    
 STEP TIME COMPLETED       0.900    ,  TOTAL TIME COMPLETED        0.900    


  INCREMENT    19 STARTS. ATTEMPT NUMBER  1, TIME INCREMENT  5.000E-02

  NUMBER OF EQUATIONS =      1335     NUMBER OF RHS =    1
  NUMBER OF FLOATING PT. OPERATIONS =  9.37E+06

  USING THE DIRECT SOLVER WITH  42 PROCESSORS

     CHECK POINT   START OF SOLVER    

     CHECK POINT  END OF SOLVER       

       ELAPSED USER TIME (SEC)      =  0.39000    
       ELAPSED SYSTEM TIME (SEC)    =  6.00000E-02
       ELAPSED TOTAL CPU TIME (SEC) =  0.45000    
       ELAPSED WALLCLOCK TIME (SEC) =          0

               CONVERGENCE CHECKS FOR EQUILIBRIUM ITERATION     1


 AVERAGE FORCE                       10.8       TIME AVG. FORCE        6.32    
 ALL FORCE     RESIDUALS ARE ZERO
 LARGEST INCREMENT OF DISP.         6.827E-03   AT NODE        686   DOF  3
 LARGEST CORRECTION TO DISP.       -3.021E-06   AT NODE        538   DOF  1
          THE FORCE     EQUILIBRIUM RESPONSE WAS LINEAR IN THIS INCREMENT

 AVERAGE MOMENT                      0.00       TIME AVG. MOMENT       7.50    
                                                (FROM FORCE     FIELD)
 ALL MOMENT    RESIDUALS ARE ZERO
 LARGEST INCREMENT OF ROTATION      4.500E-04   AT NODE        148   DOF  5
 LARGEST CORRECTION TO ROTATION     4.337E-19   AT NODE        148   DOF  6
          THERE IS ZERO MOMENT    EVERYWHERE

 ITERATION SUMMARY FOR THE INCREMENT:   1 TOTAL ITERATIONS, OF WHICH
   0 ARE SEVERE DISCONTINUITY ITERATIONS AND  1 ARE EQUILIBRIUM ITERATIONS.

 TIME INCREMENT COMPLETED  5.000E-02,  FRACTION OF STEP COMPLETED  0.950    
 STEP TIME COMPLETED       0.950    ,  TOTAL TIME COMPLETED        0.950    


  INCREMENT    20 STARTS. ATTEMPT NUMBER  1, TIME INCREMENT  5.000E-02

  NUMBER OF EQUATIONS =      1335     NUMBER OF RHS =    1
  NUMBER OF FLOATING PT. OPERATIONS =  9.37E+06

  USING THE DIRECT SOLVER WITH  42 PROCESSORS

     CHECK POINT   START OF SOLVER    

     CHECK POINT  END OF SOLVER       

       ELAPSED USER TIME (SEC)      =  0.24000    
       ELAPSED SYSTEM TIME (SEC)    =  0.10000    
       ELAPSED TOTAL CPU TIME (SEC) =  0.34000    
       ELAPSED WALLCLOCK TIME (SEC) =          0

               CONVERGENCE CHECKS FOR EQUILIBRIUM ITERATION     1


 AVERAGE FORCE                       11.2       TIME AVG. FORCE        6.56    
 ALL FORCE     RESIDUALS ARE ZERO
 LARGEST INCREMENT OF DISP.         6.827E-03   AT NODE        686   DOF  3
 LARGEST CORRECTION TO DISP.       -3.021E-06   AT NODE        538   DOF  1
          THE FORCE     EQUILIBRIUM RESPONSE WAS LINEAR IN THIS INCREMENT

 AVERAGE MOMENT                      0.00       TIME AVG. MOMENT       7.80    
                                                (FROM FORCE     FIELD)
 ALL MOMENT    RESIDUALS ARE ZERO
 LARGEST INCREMENT OF ROTATION      4.500E-04   AT NODE        148   DOF  5
 LARGEST CORRECTION TO ROTATION     8.674E-19   AT NODE        148   DOF  5
          THERE IS ZERO MOMENT    EVERYWHERE

 ITERATION SUMMARY FOR THE INCREMENT:   1 TOTAL ITERATIONS, OF WHICH
   0 ARE SEVERE DISCONTINUITY ITERATIONS AND  1 ARE EQUILIBRIUM ITERATIONS.

 TIME INCREMENT COMPLETED  5.000E-02,  FRACTION OF STEP COMPLETED   1.00    
 STEP TIME COMPLETED        1.00    ,  TOTAL TIME COMPLETED         1.00    
1

   Abaqus 2021                                  Date 22-Feb-2023   Time 18:08:29
   For use by UNIVERSITAET BERN under license from Dassault Systemes or its subsidiary.

                                                                                 
                                                                                 
 STEP    2     INCREMENT     1     STEP TIME    0.00    


                        S T E P       2     S T A T I C   A N A L Y S I S


                                                                                          

     AUTOMATIC TIME CONTROL WITH -
          A SUGGESTED INITIAL TIME INCREMENT OF                5.000E-02
          AND A TOTAL TIME PERIOD OF                            1.00    
          THE MINIMUM TIME INCREMENT ALLOWED IS                5.000E-05
          THE MAXIMUM TIME INCREMENT ALLOWED IS                5.000E-02

     LINEAR EQUATION SOLVER TYPE         DIRECT SPARSE

 CONVERGENCE TOLERANCE PARAMETERS FOR FORCE    
     CRITERION FOR RESIDUAL FORCE     FOR A NONLINEAR PROBLEM          5.000E-03
     CRITERION FOR DISP.    CORRECTION IN A NONLINEAR PROBLEM          1.000E-02
     INIT. VALUE OF TIME AVG. FORCE     IS TIME AVG. FORCE     IN PREVIOUS STEP
     AVERAGE FORCE     IS TIME AVERAGE FORCE    
     ALTERNATE CRIT. FOR RESIDUAL FORCE     FOR A NONLINEAR PROBLEM    2.000E-02
     CRITERION FOR ZERO FORCE     RELATIVE TO TIME AVRG. FORCE         1.000E-05
     CRITERION FOR RESIDUAL FORCE     WHEN THERE IS ZERO FLUX          1.000E-05
     CRITERION FOR DISP.    CORRECTION WHEN THERE IS ZERO FLUX         1.000E-03
     CRITERION FOR RESIDUAL FORCE     FOR A LINEAR INCREMENT           1.000E-08
     FIELD CONVERSION RATIO                                             1.00    
     CRITERION FOR ZERO FORCE     REL. TO TIME AVRG. MAX. FORCE        1.000E-05
     CRITERION FOR ZERO DISP.    RELATIVE TO CHARACTERISTIC LENGTH     1.000E-08

 CONVERGENCE TOLERANCE PARAMETERS FOR MOMENT   
     CRITERION FOR RESIDUAL MOMENT    FOR A NONLINEAR PROBLEM          5.000E-03
     CRITERION FOR ROTATION CORRECTION IN A NONLINEAR PROBLEM          1.000E-02
     INIT. VALUE OF TIME AVG. MOMENT    IS TIME AVG. MOMENT    IN PREVIOUS STEP
     AVERAGE MOMENT    IS TIME AVERAGE MOMENT   
     ALTERNATE CRIT. FOR RESIDUAL MOMENT    FOR A NONLINEAR PROBLEM    2.000E-02
     CRITERION FOR ZERO MOMENT    RELATIVE TO TIME AVRG. MOMENT        1.000E-05
     CRITERION FOR RESIDUAL MOMENT    WHEN THERE IS ZERO FLUX          1.000E-05
     CRITERION FOR ROTATION CORRECTION WHEN THERE IS ZERO FLUX         1.000E-03
     CRITERION FOR RESIDUAL MOMENT    FOR A LINEAR INCREMENT           1.000E-08
     FIELD CONVERSION RATIO                                             1.00    
     CRITERION FOR ZERO MOMENT    REL. TO TIME AVRG. MAX. MOMENT       1.000E-05

     VOLUMETRIC STRAIN COMPATIBILITY TOLERANCE FOR HYBRID SOLIDS       1.000E-05
     AXIAL STRAIN COMPATIBILITY TOLERANCE FOR HYBRID BEAMS             1.000E-05
     TRANS. SHEAR STRAIN COMPATIBILITY TOLERANCE FOR HYBRID BEAMS      1.000E-05
     SOFT CONTACT CONSTRAINT COMPATIBILITY TOLERANCE FOR P>P0          5.000E-03
     SOFT CONTACT CONSTRAINT COMPATIBILITY TOLERANCE FOR P=0.0         0.100    
     CONTACT FORCE ERROR TOLERANCE FOR CONVERT SDI=YES                 1.00    
     DISPLACEMENT COMPATIBILITY TOLERANCE FOR DCOUP ELEMENTS           1.000E-05
     ROTATION COMPATIBILITY TOLERANCE FOR DCOUP ELEMENTS               1.000E-05

 EQUILIBRIUM WILL BE CHECKED FOR SEVERE DISCONTINUITY ITERATIONS

 TIME INCREMENTATION CONTROL PARAMETERS:
     FIRST EQUILIBRIUM ITERATION FOR CONSECUTIVE DIVERGENCE CHECK              4
     EQUILIBRIUM ITERATION AT WHICH LOG. CONVERGENCE RATE CHECK BEGINS         8
     EQUILIBRIUM ITERATION AFTER WHICH ALTERNATE RESIDUAL IS USED              9
     MAXIMUM EQUILIBRIUM ITERATIONS ALLOWED                                   16
     EQUILIBRIUM ITERATION COUNT FOR CUT-BACK IN NEXT INCREMENT               10
     MAXIMUM EQUILIB. ITERS IN TWO INCREMENTS FOR TIME INCREMENT INCREASE      4
     MAXIMUM ITERATIONS FOR SEVERE DISCONTINUITIES                            50
     MAXIMUM ATTEMPTS ALLOWED IN AN INCREMENT                                  5
     MAXIMUM DISCON. ITERS IN TWO INCREMENTS FOR TIME INCREMENT INCREASE      50
     MAXIMUM CONTACT AUGMENTATIONS FOR *SURFACE BEHAVIOR,AUGMENTED LAGRANGE   50
     CUT-BACK FACTOR AFTER DIVERGENCE                                 0.2500    
     CUT-BACK FACTOR FOR TOO SLOW CONVERGENCE                         0.5000    
     CUT-BACK FACTOR AFTER TOO MANY EQUILIBRIUM ITERATIONS            0.7500    
     CUT-BACK FACTOR AFTER TOO MANY SEVERE DISCONTINUITY ITERATIONS   0.2500    
     CUT-BACK FACTOR AFTER PROBLEMS IN ELEMENT ASSEMBLY               0.2500    
     INCREASE FACTOR AFTER TWO INCREMENTS THAT CONVERGE QUICKLY        1.500    
     MAX. TIME INCREMENT INCREASE FACTOR ALLOWED                       1.500    
     MAX. TIME INCREMENT INCREASE FACTOR ALLOWED (DYNAMICS)            1.250    
     MAX. TIME INCREMENT INCREASE FACTOR ALLOWED (DIFFUSION)           2.000    
     MINIMUM TIME INCREMENT RATIO FOR EXTRAPOLATION TO OCCUR          0.1000    
     MAX. RATIO OF TIME INCREMENT TO STABILITY LIMIT                   1.000    
     FRACTION OF STABILITY LIMIT FOR NEW TIME INCREMENT               0.9500    
     TIME INCREMENT INCREASE FACTOR BEFORE A TIME POINT                1.000    
     GLOBAL STABILIZATION CONTROL IS NOT USED

          PRINT OF INCREMENT NUMBER, TIME, ETC., EVERY    1  INCREMENTS

     THE MAXIMUM NUMBER OF INCREMENTS IN THIS STEP IS                    1000

          LARGE DISPLACEMENT THEORY WILL BE USED

          UNSYMMETRIC MATRIX STORAGE AND SOLUTION WILL BE USED

     LINEAR EXTRAPOLATION WILL BE USED

     CHARACTERISTIC ELEMENT LENGTH      1.23    

     DETAILS REGARDING ACTUAL SOLUTION WAVEFRONT REQUESTED

     DETAILED OUTPUT OF DIAGNOSTICS TO DATABASE REQUESTED

     PRINT OF INCREMENT NUMBER, TIME, ETC., TO THE MESSAGE FILE EVERY     1  INCREMENTS

     ELEMENT OPERATIONS WILL BE CARRIED OUT IN PARALLEL USING  42 PROCESSORS

     COLLECTING STEP CONSTRAINT INFORMATION FOR OVERCONSTRAINT CHECKS


  INCREMENT     1 STARTS. ATTEMPT NUMBER  1, TIME INCREMENT  5.000E-02
 
     INITIAL ELEMENT LOAD BALANCE
            PROCESS    1   THREAD     NUMBER OF ELEMENTS
                              1            9
                              2            9
                              3            9
                              4            9
                              5            9
                              6            9
                              7            9
                              8            10
                              9            9
                             10            9
                             11            9
                             12            18
                             13            9
                             14            9
                             15            9
                             16            9
                             17            9
                             18            9
                             19            9
                             20            9
                             21            9
                             22            9
                             23            9
                             24            9
                             25            9
                             26            9
                             27            9
                             28            18
                             29            9
                             30            9
                             31            9
                             32            9
                             33            9
                             34            9
                             35            9
                             36            9
                             37            9
                             38            9
                             39            9
                             40            9
                             41            9
                             42            9

  NUMBER OF EQUATIONS =      1335     NUMBER OF RHS =    1
  NUMBER OF FLOATING PT. OPERATIONS =  9.37E+06

  USING THE DIRECT SOLVER WITH  42 PROCESSORS

     CHECK POINT   START OF SOLVER    

     CHECK POINT  END OF SOLVER       

       ELAPSED USER TIME (SEC)      =  0.33000    
       ELAPSED SYSTEM TIME (SEC)    =  7.00000E-02
       ELAPSED TOTAL CPU TIME (SEC) =  0.40000    
       ELAPSED WALLCLOCK TIME (SEC) =          0

               CONVERGENCE CHECKS FOR EQUILIBRIUM ITERATION     1


 AVERAGE FORCE                       11.1       TIME AVG. FORCE        11.1    
 ALL FORCE     RESIDUALS ARE ZERO
 LARGEST INCREMENT OF DISP.         1.157E-02   AT NODE        152   DOF  3
 LARGEST CORRECTION TO DISP.        1.157E-02   AT NODE        152   DOF  3
          THE FORCE     EQUILIBRIUM RESPONSE WAS LINEAR IN THIS INCREMENT

 AVERAGE MOMENT                      0.00       TIME AVG. MOMENT       13.7    
                                                (FROM FORCE     FIELD)
 ALL MOMENT    RESIDUALS ARE ZERO
 LARGEST INCREMENT OF ROTATION     -7.500E-04   AT NODE        148   DOF  4
 LARGEST CORRECTION TO ROTATION    -7.500E-04   AT NODE        148   DOF  4
          THERE IS ZERO MOMENT    EVERYWHERE

 ITERATION SUMMARY FOR THE INCREMENT:   1 TOTAL ITERATIONS, OF WHICH
   0 ARE SEVERE DISCONTINUITY ITERATIONS AND  1 ARE EQUILIBRIUM ITERATIONS.

 TIME INCREMENT COMPLETED  5.000E-02,  FRACTION OF STEP COMPLETED  5.000E-02
 STEP TIME COMPLETED       5.000E-02,  TOTAL TIME COMPLETED         1.05    


  INCREMENT     2 STARTS. ATTEMPT NUMBER  1, TIME INCREMENT  5.000E-02

  NUMBER OF EQUATIONS =      1335     NUMBER OF RHS =    1
  NUMBER OF FLOATING PT. OPERATIONS =  9.37E+06

  USING THE DIRECT SOLVER WITH  42 PROCESSORS

     CHECK POINT   START OF SOLVER    

     CHECK POINT  END OF SOLVER       

       ELAPSED USER TIME (SEC)      =  0.23000    
       ELAPSED SYSTEM TIME (SEC)    =  0.11000    
       ELAPSED TOTAL CPU TIME (SEC) =  0.34000    
       ELAPSED WALLCLOCK TIME (SEC) =          0

               CONVERGENCE CHECKS FOR EQUILIBRIUM ITERATION     1


 AVERAGE FORCE                       11.4       TIME AVG. FORCE        11.3    
 ALL FORCE     RESIDUALS ARE ZERO
 LARGEST INCREMENT OF DISP.         1.157E-02   AT NODE        152   DOF  3
 LARGEST CORRECTION TO DISP.        8.605E-06   AT NODE        152   DOF  2
          THE FORCE     EQUILIBRIUM RESPONSE WAS LINEAR IN THIS INCREMENT

 AVERAGE MOMENT                      0.00       TIME AVG. MOMENT       13.7    
                                                (FROM FORCE     FIELD)
 ALL MOMENT    RESIDUALS ARE ZERO
 LARGEST INCREMENT OF ROTATION     -7.500E-04   AT NODE        148   DOF  4
 LARGEST CORRECTION TO ROTATION     2.304E-19   AT NODE        148   DOF  6
          THERE IS ZERO MOMENT    EVERYWHERE

 ITERATION SUMMARY FOR THE INCREMENT:   1 TOTAL ITERATIONS, OF WHICH
   0 ARE SEVERE DISCONTINUITY ITERATIONS AND  1 ARE EQUILIBRIUM ITERATIONS.

 TIME INCREMENT COMPLETED  5.000E-02,  FRACTION OF STEP COMPLETED  0.100    
 STEP TIME COMPLETED       0.100    ,  TOTAL TIME COMPLETED         1.10    


  INCREMENT     3 STARTS. ATTEMPT NUMBER  1, TIME INCREMENT  5.000E-02

  NUMBER OF EQUATIONS =      1335     NUMBER OF RHS =    1
  NUMBER OF FLOATING PT. OPERATIONS =  9.37E+06

  USING THE DIRECT SOLVER WITH  42 PROCESSORS

     CHECK POINT   START OF SOLVER    

     CHECK POINT  END OF SOLVER       

       ELAPSED USER TIME (SEC)      =  0.27000    
       ELAPSED SYSTEM TIME (SEC)    =  6.00000E-02
       ELAPSED TOTAL CPU TIME (SEC) =  0.33000    
       ELAPSED WALLCLOCK TIME (SEC) =          0

               CONVERGENCE CHECKS FOR EQUILIBRIUM ITERATION     1


 AVERAGE FORCE                       11.8       TIME AVG. FORCE        11.4    
 ALL FORCE     RESIDUALS ARE ZERO
 LARGEST INCREMENT OF DISP.         1.157E-02   AT NODE        152   DOF  3
 LARGEST CORRECTION TO DISP.        8.605E-06   AT NODE        152   DOF  2
          THE FORCE     EQUILIBRIUM RESPONSE WAS LINEAR IN THIS INCREMENT

 AVERAGE MOMENT                      0.00       TIME AVG. MOMENT       13.9    
                                                (FROM FORCE     FIELD)
 ALL MOMENT    RESIDUALS ARE ZERO
 LARGEST INCREMENT OF ROTATION     -7.500E-04   AT NODE        148   DOF  4
 LARGEST CORRECTION TO ROTATION    -3.253E-19   AT NODE        148   DOF  4
          THERE IS ZERO MOMENT    EVERYWHERE

 ITERATION SUMMARY FOR THE INCREMENT:   1 TOTAL ITERATIONS, OF WHICH
   0 ARE SEVERE DISCONTINUITY ITERATIONS AND  1 ARE EQUILIBRIUM ITERATIONS.

 TIME INCREMENT COMPLETED  5.000E-02,  FRACTION OF STEP COMPLETED  0.150    
 STEP TIME COMPLETED       0.150    ,  TOTAL TIME COMPLETED         1.15    


  INCREMENT     4 STARTS. ATTEMPT NUMBER  1, TIME INCREMENT  5.000E-02

  NUMBER OF EQUATIONS =      1335     NUMBER OF RHS =    1
  NUMBER OF FLOATING PT. OPERATIONS =  9.37E+06

  USING THE DIRECT SOLVER WITH  42 PROCESSORS

     CHECK POINT   START OF SOLVER    

     CHECK POINT  END OF SOLVER       

       ELAPSED USER TIME (SEC)      =  0.25000    
       ELAPSED SYSTEM TIME (SEC)    =  5.00000E-02
       ELAPSED TOTAL CPU TIME (SEC) =  0.30000    
       ELAPSED WALLCLOCK TIME (SEC) =          0

               CONVERGENCE CHECKS FOR EQUILIBRIUM ITERATION     1


 AVERAGE FORCE                       12.2       TIME AVG. FORCE        11.6    
 ALL FORCE     RESIDUALS ARE ZERO
 LARGEST INCREMENT OF DISP.         1.157E-02   AT NODE        152   DOF  3
 LARGEST CORRECTION TO DISP.        8.605E-06   AT NODE        152   DOF  2
          THE FORCE     EQUILIBRIUM RESPONSE WAS LINEAR IN THIS INCREMENT

 AVERAGE MOMENT                      0.00       TIME AVG. MOMENT       14.1    
                                                (FROM FORCE     FIELD)
 ALL MOMENT    RESIDUALS ARE ZERO
 LARGEST INCREMENT OF ROTATION     -7.500E-04   AT NODE        148   DOF  4
 LARGEST CORRECTION TO ROTATION     7.589E-19   AT NODE        148   DOF  4
          THERE IS ZERO MOMENT    EVERYWHERE

 ITERATION SUMMARY FOR THE INCREMENT:   1 TOTAL ITERATIONS, OF WHICH
   0 ARE SEVERE DISCONTINUITY ITERATIONS AND  1 ARE EQUILIBRIUM ITERATIONS.

 TIME INCREMENT COMPLETED  5.000E-02,  FRACTION OF STEP COMPLETED  0.200    
 STEP TIME COMPLETED       0.200    ,  TOTAL TIME COMPLETED         1.20    


  INCREMENT     5 STARTS. ATTEMPT NUMBER  1, TIME INCREMENT  5.000E-02

  NUMBER OF EQUATIONS =      1335     NUMBER OF RHS =    1
  NUMBER OF FLOATING PT. OPERATIONS =  9.37E+06

  USING THE DIRECT SOLVER WITH  42 PROCESSORS

     CHECK POINT   START OF SOLVER    

     CHECK POINT  END OF SOLVER       

       ELAPSED USER TIME (SEC)      =  0.26000    
       ELAPSED SYSTEM TIME (SEC)    =  9.00000E-02
       ELAPSED TOTAL CPU TIME (SEC) =  0.35000    
       ELAPSED WALLCLOCK TIME (SEC) =          0

               CONVERGENCE CHECKS FOR EQUILIBRIUM ITERATION     1


 AVERAGE FORCE                       12.5       TIME AVG. FORCE        11.8    
 ALL FORCE     RESIDUALS ARE ZERO
 LARGEST INCREMENT OF DISP.         1.157E-02   AT NODE        152   DOF  3
 LARGEST CORRECTION TO DISP.        8.605E-06   AT NODE        152   DOF  2
          THE FORCE     EQUILIBRIUM RESPONSE WAS LINEAR IN THIS INCREMENT

 AVERAGE MOMENT                      0.00       TIME AVG. MOMENT       14.4    
                                                (FROM FORCE     FIELD)
 ALL MOMENT    RESIDUALS ARE ZERO
 LARGEST INCREMENT OF ROTATION     -7.500E-04   AT NODE        148   DOF  4
 LARGEST CORRECTION TO ROTATION    -2.168E-19   AT NODE        148   DOF  4
          THERE IS ZERO MOMENT    EVERYWHERE

 ITERATION SUMMARY FOR THE INCREMENT:   1 TOTAL ITERATIONS, OF WHICH
   0 ARE SEVERE DISCONTINUITY ITERATIONS AND  1 ARE EQUILIBRIUM ITERATIONS.

 TIME INCREMENT COMPLETED  5.000E-02,  FRACTION OF STEP COMPLETED  0.250    
 STEP TIME COMPLETED       0.250    ,  TOTAL TIME COMPLETED         1.25    


  INCREMENT     6 STARTS. ATTEMPT NUMBER  1, TIME INCREMENT  5.000E-02

  NUMBER OF EQUATIONS =      1335     NUMBER OF RHS =    1
  NUMBER OF FLOATING PT. OPERATIONS =  9.37E+06

  USING THE DIRECT SOLVER WITH  42 PROCESSORS

     CHECK POINT   START OF SOLVER    

     CHECK POINT  END OF SOLVER       

       ELAPSED USER TIME (SEC)      =  0.25000    
       ELAPSED SYSTEM TIME (SEC)    =  7.00000E-02
       ELAPSED TOTAL CPU TIME (SEC) =  0.32000    
       ELAPSED WALLCLOCK TIME (SEC) =          0

               CONVERGENCE CHECKS FOR EQUILIBRIUM ITERATION     1


 AVERAGE FORCE                       12.9       TIME AVG. FORCE        12.0    
 ALL FORCE     RESIDUALS ARE ZERO
 LARGEST INCREMENT OF DISP.         1.157E-02   AT NODE        152   DOF  3
 LARGEST CORRECTION TO DISP.        8.605E-06   AT NODE        152   DOF  2
          THE FORCE     EQUILIBRIUM RESPONSE WAS LINEAR IN THIS INCREMENT

 AVERAGE MOMENT                      0.00       TIME AVG. MOMENT       14.6    
                                                (FROM FORCE     FIELD)
 ALL MOMENT    RESIDUALS ARE ZERO
 LARGEST INCREMENT OF ROTATION     -7.500E-04   AT NODE        148   DOF  4
 LARGEST CORRECTION TO ROTATION    -2.695E-31   AT NODE        148   DOF  5
          THERE IS ZERO MOMENT    EVERYWHERE

 ITERATION SUMMARY FOR THE INCREMENT:   1 TOTAL ITERATIONS, OF WHICH
   0 ARE SEVERE DISCONTINUITY ITERATIONS AND  1 ARE EQUILIBRIUM ITERATIONS.

 TIME INCREMENT COMPLETED  5.000E-02,  FRACTION OF STEP COMPLETED  0.300    
 STEP TIME COMPLETED       0.300    ,  TOTAL TIME COMPLETED         1.30    


  INCREMENT     7 STARTS. ATTEMPT NUMBER  1, TIME INCREMENT  5.000E-02

  NUMBER OF EQUATIONS =      1335     NUMBER OF RHS =    1
  NUMBER OF FLOATING PT. OPERATIONS =  9.37E+06

  USING THE DIRECT SOLVER WITH  42 PROCESSORS

     CHECK POINT   START OF SOLVER    

     CHECK POINT  END OF SOLVER       

       ELAPSED USER TIME (SEC)      =  0.26000    
       ELAPSED SYSTEM TIME (SEC)    =  7.00000E-02
       ELAPSED TOTAL CPU TIME (SEC) =  0.33000    
       ELAPSED WALLCLOCK TIME (SEC) =          0

               CONVERGENCE CHECKS FOR EQUILIBRIUM ITERATION     1


 AVERAGE FORCE                       13.4       TIME AVG. FORCE        12.2    
 ALL FORCE     RESIDUALS ARE ZERO
 LARGEST INCREMENT OF DISP.         1.157E-02   AT NODE        152   DOF  3
 LARGEST CORRECTION TO DISP.        8.605E-06   AT NODE        152   DOF  2
          THE FORCE     EQUILIBRIUM RESPONSE WAS LINEAR IN THIS INCREMENT

 AVERAGE MOMENT                      0.00       TIME AVG. MOMENT       14.8    
                                                (FROM FORCE     FIELD)
 ALL MOMENT    RESIDUALS ARE ZERO
 LARGEST INCREMENT OF ROTATION     -7.500E-04   AT NODE        148   DOF  4
 LARGEST CORRECTION TO ROTATION     1.735E-18   AT NODE        148   DOF  5
          THERE IS ZERO MOMENT    EVERYWHERE

 ITERATION SUMMARY FOR THE INCREMENT:   1 TOTAL ITERATIONS, OF WHICH
   0 ARE SEVERE DISCONTINUITY ITERATIONS AND  1 ARE EQUILIBRIUM ITERATIONS.

 TIME INCREMENT COMPLETED  5.000E-02,  FRACTION OF STEP COMPLETED  0.350    
 STEP TIME COMPLETED       0.350    ,  TOTAL TIME COMPLETED         1.35    


  INCREMENT     8 STARTS. ATTEMPT NUMBER  1, TIME INCREMENT  5.000E-02

  NUMBER OF EQUATIONS =      1335     NUMBER OF RHS =    1
  NUMBER OF FLOATING PT. OPERATIONS =  9.37E+06

  USING THE DIRECT SOLVER WITH  42 PROCESSORS

     CHECK POINT   START OF SOLVER    

     CHECK POINT  END OF SOLVER       

       ELAPSED USER TIME (SEC)      =  0.26000    
       ELAPSED SYSTEM TIME (SEC)    =  5.00000E-02
       ELAPSED TOTAL CPU TIME (SEC) =  0.31000    
       ELAPSED WALLCLOCK TIME (SEC) =          0

               CONVERGENCE CHECKS FOR EQUILIBRIUM ITERATION     1


 AVERAGE FORCE                       13.8       TIME AVG. FORCE        12.4    
 ALL FORCE     RESIDUALS ARE ZERO
 LARGEST INCREMENT OF DISP.         1.157E-02   AT NODE        152   DOF  3
 LARGEST CORRECTION TO DISP.        8.605E-06   AT NODE        152   DOF  2
          THE FORCE     EQUILIBRIUM RESPONSE WAS LINEAR IN THIS INCREMENT

 AVERAGE MOMENT                      0.00       TIME AVG. MOMENT       15.1    
                                                (FROM FORCE     FIELD)
 ALL MOMENT    RESIDUALS ARE ZERO
 LARGEST INCREMENT OF ROTATION     -7.500E-04   AT NODE        148   DOF  4
 LARGEST CORRECTION TO ROTATION    -1.735E-18   AT NODE        148   DOF  5
          THERE IS ZERO MOMENT    EVERYWHERE

 ITERATION SUMMARY FOR THE INCREMENT:   1 TOTAL ITERATIONS, OF WHICH
   0 ARE SEVERE DISCONTINUITY ITERATIONS AND  1 ARE EQUILIBRIUM ITERATIONS.

 TIME INCREMENT COMPLETED  5.000E-02,  FRACTION OF STEP COMPLETED  0.400    
 STEP TIME COMPLETED       0.400    ,  TOTAL TIME COMPLETED         1.40    


  INCREMENT     9 STARTS. ATTEMPT NUMBER  1, TIME INCREMENT  5.000E-02

  NUMBER OF EQUATIONS =      1335     NUMBER OF RHS =    1
  NUMBER OF FLOATING PT. OPERATIONS =  9.37E+06

  USING THE DIRECT SOLVER WITH  42 PROCESSORS

     CHECK POINT   START OF SOLVER    

     CHECK POINT  END OF SOLVER       

       ELAPSED USER TIME (SEC)      =  0.29000    
       ELAPSED SYSTEM TIME (SEC)    =  7.00000E-02
       ELAPSED TOTAL CPU TIME (SEC) =  0.36000    
       ELAPSED WALLCLOCK TIME (SEC) =          0

               CONVERGENCE CHECKS FOR EQUILIBRIUM ITERATION     1


 AVERAGE FORCE                       14.3       TIME AVG. FORCE        12.6    
 ALL FORCE     RESIDUALS ARE ZERO
 LARGEST INCREMENT OF DISP.         1.157E-02   AT NODE        152   DOF  3
 LARGEST CORRECTION TO DISP.        8.605E-06   AT NODE        152   DOF  2
          THE FORCE     EQUILIBRIUM RESPONSE WAS LINEAR IN THIS INCREMENT

 AVERAGE MOMENT                      0.00       TIME AVG. MOMENT       15.3    
                                                (FROM FORCE     FIELD)
 ALL MOMENT    RESIDUALS ARE ZERO
 LARGEST INCREMENT OF ROTATION     -7.500E-04   AT NODE        148   DOF  4
 LARGEST CORRECTION TO ROTATION    -2.582E-31   AT NODE        148   DOF  5
          THERE IS ZERO MOMENT    EVERYWHERE

 ITERATION SUMMARY FOR THE INCREMENT:   1 TOTAL ITERATIONS, OF WHICH
   0 ARE SEVERE DISCONTINUITY ITERATIONS AND  1 ARE EQUILIBRIUM ITERATIONS.

 TIME INCREMENT COMPLETED  5.000E-02,  FRACTION OF STEP COMPLETED  0.450    
 STEP TIME COMPLETED       0.450    ,  TOTAL TIME COMPLETED         1.45    


  INCREMENT    10 STARTS. ATTEMPT NUMBER  1, TIME INCREMENT  5.000E-02

  NUMBER OF EQUATIONS =      1335     NUMBER OF RHS =    1
  NUMBER OF FLOATING PT. OPERATIONS =  9.37E+06

  USING THE DIRECT SOLVER WITH  42 PROCESSORS

     CHECK POINT   START OF SOLVER    

     CHECK POINT  END OF SOLVER       

       ELAPSED USER TIME (SEC)      =  0.26000    
       ELAPSED SYSTEM TIME (SEC)    =  9.00000E-02
       ELAPSED TOTAL CPU TIME (SEC) =  0.35000    
       ELAPSED WALLCLOCK TIME (SEC) =          0

               CONVERGENCE CHECKS FOR EQUILIBRIUM ITERATION     1


 AVERAGE FORCE                       14.8       TIME AVG. FORCE        12.8    
 ALL FORCE     RESIDUALS ARE ZERO
 LARGEST INCREMENT OF DISP.         1.157E-02   AT NODE        152   DOF  3
 LARGEST CORRECTION TO DISP.        8.605E-06   AT NODE        152   DOF  2
          THE FORCE     EQUILIBRIUM RESPONSE WAS LINEAR IN THIS INCREMENT

 AVERAGE MOMENT                      0.00       TIME AVG. MOMENT       15.6    
                                                (FROM FORCE     FIELD)
 ALL MOMENT    RESIDUALS ARE ZERO
 LARGEST INCREMENT OF ROTATION     -7.500E-04   AT NODE        148   DOF  4
 LARGEST CORRECTION TO ROTATION     1.735E-18   AT NODE        148   DOF  5
          THERE IS ZERO MOMENT    EVERYWHERE

 ITERATION SUMMARY FOR THE INCREMENT:   1 TOTAL ITERATIONS, OF WHICH
   0 ARE SEVERE DISCONTINUITY ITERATIONS AND  1 ARE EQUILIBRIUM ITERATIONS.

 TIME INCREMENT COMPLETED  5.000E-02,  FRACTION OF STEP COMPLETED  0.500    
 STEP TIME COMPLETED       0.500    ,  TOTAL TIME COMPLETED         1.50    


  INCREMENT    11 STARTS. ATTEMPT NUMBER  1, TIME INCREMENT  5.000E-02

  NUMBER OF EQUATIONS =      1335     NUMBER OF RHS =    1
  NUMBER OF FLOATING PT. OPERATIONS =  9.37E+06

  USING THE DIRECT SOLVER WITH  42 PROCESSORS

     CHECK POINT   START OF SOLVER    

     CHECK POINT  END OF SOLVER       

       ELAPSED USER TIME (SEC)      =  0.26000    
       ELAPSED SYSTEM TIME (SEC)    =  5.00000E-02
       ELAPSED TOTAL CPU TIME (SEC) =  0.31000    
       ELAPSED WALLCLOCK TIME (SEC) =          0

               CONVERGENCE CHECKS FOR EQUILIBRIUM ITERATION     1


 AVERAGE FORCE                       15.2       TIME AVG. FORCE        13.0    
 ALL FORCE     RESIDUALS ARE ZERO
 LARGEST INCREMENT OF DISP.         1.157E-02   AT NODE        152   DOF  3
 LARGEST CORRECTION TO DISP.        8.605E-06   AT NODE        152   DOF  2
          THE FORCE     EQUILIBRIUM RESPONSE WAS LINEAR IN THIS INCREMENT

 AVERAGE MOMENT                      0.00       TIME AVG. MOMENT       15.8    
                                                (FROM FORCE     FIELD)
 ALL MOMENT    RESIDUALS ARE ZERO
 LARGEST INCREMENT OF ROTATION     -7.500E-04   AT NODE        148   DOF  4
 LARGEST CORRECTION TO ROTATION    -2.602E-18   AT NODE        148   DOF  4
          THERE IS ZERO MOMENT    EVERYWHERE

 ITERATION SUMMARY FOR THE INCREMENT:   1 TOTAL ITERATIONS, OF WHICH
   0 ARE SEVERE DISCONTINUITY ITERATIONS AND  1 ARE EQUILIBRIUM ITERATIONS.

 TIME INCREMENT COMPLETED  5.000E-02,  FRACTION OF STEP COMPLETED  0.550    
 STEP TIME COMPLETED       0.550    ,  TOTAL TIME COMPLETED         1.55    


  INCREMENT    12 STARTS. ATTEMPT NUMBER  1, TIME INCREMENT  5.000E-02

  NUMBER OF EQUATIONS =      1335     NUMBER OF RHS =    1
  NUMBER OF FLOATING PT. OPERATIONS =  9.37E+06

  USING THE DIRECT SOLVER WITH  42 PROCESSORS

     CHECK POINT   START OF SOLVER    

     CHECK POINT  END OF SOLVER       

       ELAPSED USER TIME (SEC)      =  0.39000    
       ELAPSED SYSTEM TIME (SEC)    =  5.00000E-02
       ELAPSED TOTAL CPU TIME (SEC) =  0.44000    
       ELAPSED WALLCLOCK TIME (SEC) =          0

               CONVERGENCE CHECKS FOR EQUILIBRIUM ITERATION     1


 AVERAGE FORCE                       15.7       TIME AVG. FORCE        13.3    
 ALL FORCE     RESIDUALS ARE ZERO
 LARGEST INCREMENT OF DISP.         1.157E-02   AT NODE        152   DOF  3
 LARGEST CORRECTION TO DISP.        8.605E-06   AT NODE        152   DOF  2
          THE FORCE     EQUILIBRIUM RESPONSE WAS LINEAR IN THIS INCREMENT

 AVERAGE MOMENT                      0.00       TIME AVG. MOMENT       16.1    
                                                (FROM FORCE     FIELD)
 ALL MOMENT    RESIDUALS ARE ZERO
 LARGEST INCREMENT OF ROTATION     -7.500E-04   AT NODE        148   DOF  4
 LARGEST CORRECTION TO ROTATION     8.674E-19   AT NODE        148   DOF  4
          THERE IS ZERO MOMENT    EVERYWHERE

 ITERATION SUMMARY FOR THE INCREMENT:   1 TOTAL ITERATIONS, OF WHICH
   0 ARE SEVERE DISCONTINUITY ITERATIONS AND  1 ARE EQUILIBRIUM ITERATIONS.

 TIME INCREMENT COMPLETED  5.000E-02,  FRACTION OF STEP COMPLETED  0.600    
 STEP TIME COMPLETED       0.600    ,  TOTAL TIME COMPLETED         1.60    


  INCREMENT    13 STARTS. ATTEMPT NUMBER  1, TIME INCREMENT  5.000E-02

  NUMBER OF EQUATIONS =      1335     NUMBER OF RHS =    1
  NUMBER OF FLOATING PT. OPERATIONS =  9.37E+06

  USING THE DIRECT SOLVER WITH  42 PROCESSORS

     CHECK POINT   START OF SOLVER    

     CHECK POINT  END OF SOLVER       

       ELAPSED USER TIME (SEC)      =  0.30000    
       ELAPSED SYSTEM TIME (SEC)    =  8.00000E-02
       ELAPSED TOTAL CPU TIME (SEC) =  0.38000    
       ELAPSED WALLCLOCK TIME (SEC) =          0

               CONVERGENCE CHECKS FOR EQUILIBRIUM ITERATION     1


 AVERAGE FORCE                       16.3       TIME AVG. FORCE        13.5    
 ALL FORCE     RESIDUALS ARE ZERO
 LARGEST INCREMENT OF DISP.         1.157E-02   AT NODE        152   DOF  3
 LARGEST CORRECTION TO DISP.        8.605E-06   AT NODE        152   DOF  2
          THE FORCE     EQUILIBRIUM RESPONSE WAS LINEAR IN THIS INCREMENT

 AVERAGE MOMENT                      0.00       TIME AVG. MOMENT       16.4    
                                                (FROM FORCE     FIELD)
 ALL MOMENT    RESIDUALS ARE ZERO
 LARGEST INCREMENT OF ROTATION     -7.500E-04   AT NODE        148   DOF  4
 LARGEST CORRECTION TO ROTATION     3.420E-31   AT NODE        148   DOF  4
          THERE IS ZERO MOMENT    EVERYWHERE

 ITERATION SUMMARY FOR THE INCREMENT:   1 TOTAL ITERATIONS, OF WHICH
   0 ARE SEVERE DISCONTINUITY ITERATIONS AND  1 ARE EQUILIBRIUM ITERATIONS.

 TIME INCREMENT COMPLETED  5.000E-02,  FRACTION OF STEP COMPLETED  0.650    
 STEP TIME COMPLETED       0.650    ,  TOTAL TIME COMPLETED         1.65    


  INCREMENT    14 STARTS. ATTEMPT NUMBER  1, TIME INCREMENT  5.000E-02

  NUMBER OF EQUATIONS =      1335     NUMBER OF RHS =    1
  NUMBER OF FLOATING PT. OPERATIONS =  9.37E+06

  USING THE DIRECT SOLVER WITH  42 PROCESSORS

     CHECK POINT   START OF SOLVER    

     CHECK POINT  END OF SOLVER       

       ELAPSED USER TIME (SEC)      =  0.27000    
       ELAPSED SYSTEM TIME (SEC)    =  7.00000E-02
       ELAPSED TOTAL CPU TIME (SEC) =  0.34000    
       ELAPSED WALLCLOCK TIME (SEC) =          0

               CONVERGENCE CHECKS FOR EQUILIBRIUM ITERATION     1


 AVERAGE FORCE                       16.8       TIME AVG. FORCE        13.7    
 ALL FORCE     RESIDUALS ARE ZERO
 LARGEST INCREMENT OF DISP.         1.157E-02   AT NODE        152   DOF  3
 LARGEST CORRECTION TO DISP.        8.605E-06   AT NODE        152   DOF  2
          THE FORCE     EQUILIBRIUM RESPONSE WAS LINEAR IN THIS INCREMENT

 AVERAGE MOMENT                      0.00       TIME AVG. MOMENT       16.7    
                                                (FROM FORCE     FIELD)
 ALL MOMENT    RESIDUALS ARE ZERO
 LARGEST INCREMENT OF ROTATION     -7.500E-04   AT NODE        148   DOF  4
 LARGEST CORRECTION TO ROTATION    -8.674E-19   AT NODE        148   DOF  5
          THERE IS ZERO MOMENT    EVERYWHERE

 ITERATION SUMMARY FOR THE INCREMENT:   1 TOTAL ITERATIONS, OF WHICH
   0 ARE SEVERE DISCONTINUITY ITERATIONS AND  1 ARE EQUILIBRIUM ITERATIONS.

 TIME INCREMENT COMPLETED  5.000E-02,  FRACTION OF STEP COMPLETED  0.700    
 STEP TIME COMPLETED       0.700    ,  TOTAL TIME COMPLETED         1.70    


  INCREMENT    15 STARTS. ATTEMPT NUMBER  1, TIME INCREMENT  5.000E-02

  NUMBER OF EQUATIONS =      1335     NUMBER OF RHS =    1
  NUMBER OF FLOATING PT. OPERATIONS =  9.37E+06

  USING THE DIRECT SOLVER WITH  42 PROCESSORS

     CHECK POINT   START OF SOLVER    

     CHECK POINT  END OF SOLVER       

       ELAPSED USER TIME (SEC)      =  0.26000    
       ELAPSED SYSTEM TIME (SEC)    =  9.00000E-02
       ELAPSED TOTAL CPU TIME (SEC) =  0.35000    
       ELAPSED WALLCLOCK TIME (SEC) =          0

               CONVERGENCE CHECKS FOR EQUILIBRIUM ITERATION     1


 AVERAGE FORCE                       17.4       TIME AVG. FORCE        14.0    
 ALL FORCE     RESIDUALS ARE ZERO
 LARGEST INCREMENT OF DISP.         1.157E-02   AT NODE        152   DOF  3
 LARGEST CORRECTION TO DISP.        8.605E-06   AT NODE        152   DOF  2
          THE FORCE     EQUILIBRIUM RESPONSE WAS LINEAR IN THIS INCREMENT

 AVERAGE MOMENT                      0.00       TIME AVG. MOMENT       17.0    
                                                (FROM FORCE     FIELD)
 ALL MOMENT    RESIDUALS ARE ZERO
 LARGEST INCREMENT OF ROTATION     -7.500E-04   AT NODE        148   DOF  4
 LARGEST CORRECTION TO ROTATION     3.847E-31   AT NODE        148   DOF  4
          THERE IS ZERO MOMENT    EVERYWHERE

 ITERATION SUMMARY FOR THE INCREMENT:   1 TOTAL ITERATIONS, OF WHICH
   0 ARE SEVERE DISCONTINUITY ITERATIONS AND  1 ARE EQUILIBRIUM ITERATIONS.

 TIME INCREMENT COMPLETED  5.000E-02,  FRACTION OF STEP COMPLETED  0.750    
 STEP TIME COMPLETED       0.750    ,  TOTAL TIME COMPLETED         1.75    


  INCREMENT    16 STARTS. ATTEMPT NUMBER  1, TIME INCREMENT  5.000E-02

  NUMBER OF EQUATIONS =      1335     NUMBER OF RHS =    1
  NUMBER OF FLOATING PT. OPERATIONS =  9.37E+06

  USING THE DIRECT SOLVER WITH  42 PROCESSORS

     CHECK POINT   START OF SOLVER    

     CHECK POINT  END OF SOLVER       

       ELAPSED USER TIME (SEC)      =  0.30000    
       ELAPSED SYSTEM TIME (SEC)    =  5.00000E-02
       ELAPSED TOTAL CPU TIME (SEC) =  0.35000    
       ELAPSED WALLCLOCK TIME (SEC) =          0

               CONVERGENCE CHECKS FOR EQUILIBRIUM ITERATION     1


 AVERAGE FORCE                       17.9       TIME AVG. FORCE        14.2    
 ALL FORCE     RESIDUALS ARE ZERO
 LARGEST INCREMENT OF DISP.         1.157E-02   AT NODE        152   DOF  3
 LARGEST CORRECTION TO DISP.        8.605E-06   AT NODE        152   DOF  2
          THE FORCE     EQUILIBRIUM RESPONSE WAS LINEAR IN THIS INCREMENT

 AVERAGE MOMENT                      0.00       TIME AVG. MOMENT       17.3    
                                                (FROM FORCE     FIELD)
 ALL MOMENT    RESIDUALS ARE ZERO
 LARGEST INCREMENT OF ROTATION     -7.500E-04   AT NODE        148   DOF  4
 LARGEST CORRECTION TO ROTATION     4.058E-31   AT NODE        148   DOF  4
          THERE IS ZERO MOMENT    EVERYWHERE

 ITERATION SUMMARY FOR THE INCREMENT:   1 TOTAL ITERATIONS, OF WHICH
   0 ARE SEVERE DISCONTINUITY ITERATIONS AND  1 ARE EQUILIBRIUM ITERATIONS.

 TIME INCREMENT COMPLETED  5.000E-02,  FRACTION OF STEP COMPLETED  0.800    
 STEP TIME COMPLETED       0.800    ,  TOTAL TIME COMPLETED         1.80    


  INCREMENT    17 STARTS. ATTEMPT NUMBER  1, TIME INCREMENT  5.000E-02

  NUMBER OF EQUATIONS =      1335     NUMBER OF RHS =    1
  NUMBER OF FLOATING PT. OPERATIONS =  9.37E+06

  USING THE DIRECT SOLVER WITH  42 PROCESSORS

     CHECK POINT   START OF SOLVER    

     CHECK POINT  END OF SOLVER       

       ELAPSED USER TIME (SEC)      =  0.22000    
       ELAPSED SYSTEM TIME (SEC)    =  0.10000    
       ELAPSED TOTAL CPU TIME (SEC) =  0.32000    
       ELAPSED WALLCLOCK TIME (SEC) =          0

               CONVERGENCE CHECKS FOR EQUILIBRIUM ITERATION     1


 AVERAGE FORCE                       18.4       TIME AVG. FORCE        14.5    
 ALL FORCE     RESIDUALS ARE ZERO
 LARGEST INCREMENT OF DISP.         1.157E-02   AT NODE        152   DOF  3
 LARGEST CORRECTION TO DISP.        8.605E-06   AT NODE        152   DOF  2
          THE FORCE     EQUILIBRIUM RESPONSE WAS LINEAR IN THIS INCREMENT

 AVERAGE MOMENT                      0.00       TIME AVG. MOMENT       17.6    
                                                (FROM FORCE     FIELD)
 ALL MOMENT    RESIDUALS ARE ZERO
 LARGEST INCREMENT OF ROTATION     -7.500E-04   AT NODE        148   DOF  4
 LARGEST CORRECTION TO ROTATION     1.735E-18   AT NODE        148   DOF  4
          THERE IS ZERO MOMENT    EVERYWHERE

 ITERATION SUMMARY FOR THE INCREMENT:   1 TOTAL ITERATIONS, OF WHICH
   0 ARE SEVERE DISCONTINUITY ITERATIONS AND  1 ARE EQUILIBRIUM ITERATIONS.

 TIME INCREMENT COMPLETED  5.000E-02,  FRACTION OF STEP COMPLETED  0.850    
 STEP TIME COMPLETED       0.850    ,  TOTAL TIME COMPLETED         1.85    


  INCREMENT    18 STARTS. ATTEMPT NUMBER  1, TIME INCREMENT  5.000E-02

  NUMBER OF EQUATIONS =      1335     NUMBER OF RHS =    1
  NUMBER OF FLOATING PT. OPERATIONS =  9.37E+06

  USING THE DIRECT SOLVER WITH  42 PROCESSORS

     CHECK POINT   START OF SOLVER    

     CHECK POINT  END OF SOLVER       

       ELAPSED USER TIME (SEC)      =  0.27000    
       ELAPSED SYSTEM TIME (SEC)    =  6.00000E-02
       ELAPSED TOTAL CPU TIME (SEC) =  0.33000    
       ELAPSED WALLCLOCK TIME (SEC) =          0

               CONVERGENCE CHECKS FOR EQUILIBRIUM ITERATION     1


 AVERAGE FORCE                       19.0       TIME AVG. FORCE        14.7    
 ALL FORCE     RESIDUALS ARE ZERO
 LARGEST INCREMENT OF DISP.         1.157E-02   AT NODE        152   DOF  3
 LARGEST CORRECTION TO DISP.        8.605E-06   AT NODE        152   DOF  2
          THE FORCE     EQUILIBRIUM RESPONSE WAS LINEAR IN THIS INCREMENT

 AVERAGE MOMENT                      0.00       TIME AVG. MOMENT       17.9    
                                                (FROM FORCE     FIELD)
 ALL MOMENT    RESIDUALS ARE ZERO
 LARGEST INCREMENT OF ROTATION     -7.500E-04   AT NODE        148   DOF  4
 LARGEST CORRECTION TO ROTATION    -1.735E-18   AT NODE        148   DOF  4
          THERE IS ZERO MOMENT    EVERYWHERE

 ITERATION SUMMARY FOR THE INCREMENT:   1 TOTAL ITERATIONS, OF WHICH
   0 ARE SEVERE DISCONTINUITY ITERATIONS AND  1 ARE EQUILIBRIUM ITERATIONS.

 TIME INCREMENT COMPLETED  5.000E-02,  FRACTION OF STEP COMPLETED  0.900    
 STEP TIME COMPLETED       0.900    ,  TOTAL TIME COMPLETED         1.90    


  INCREMENT    19 STARTS. ATTEMPT NUMBER  1, TIME INCREMENT  5.000E-02

  NUMBER OF EQUATIONS =      1335     NUMBER OF RHS =    1
  NUMBER OF FLOATING PT. OPERATIONS =  9.37E+06

  USING THE DIRECT SOLVER WITH  42 PROCESSORS

     CHECK POINT   START OF SOLVER    

     CHECK POINT  END OF SOLVER       

       ELAPSED USER TIME (SEC)      =  0.25000    
       ELAPSED SYSTEM TIME (SEC)    =  6.00000E-02
       ELAPSED TOTAL CPU TIME (SEC) =  0.31000    
       ELAPSED WALLCLOCK TIME (SEC) =          0

               CONVERGENCE CHECKS FOR EQUILIBRIUM ITERATION     1


 AVERAGE FORCE                       19.5       TIME AVG. FORCE        15.0    
 ALL FORCE     RESIDUALS ARE ZERO
 LARGEST INCREMENT OF DISP.         1.157E-02   AT NODE        152   DOF  3
 LARGEST CORRECTION TO DISP.        8.605E-06   AT NODE        152   DOF  2
          THE FORCE     EQUILIBRIUM RESPONSE WAS LINEAR IN THIS INCREMENT

 AVERAGE MOMENT                      0.00       TIME AVG. MOMENT       18.2    
                                                (FROM FORCE     FIELD)
 ALL MOMENT    RESIDUALS ARE ZERO
 LARGEST INCREMENT OF ROTATION     -7.500E-04   AT NODE        148   DOF  4
 LARGEST CORRECTION TO ROTATION     1.735E-18   AT NODE        148   DOF  5
          THERE IS ZERO MOMENT    EVERYWHERE

 ITERATION SUMMARY FOR THE INCREMENT:   1 TOTAL ITERATIONS, OF WHICH
   0 ARE SEVERE DISCONTINUITY ITERATIONS AND  1 ARE EQUILIBRIUM ITERATIONS.

 TIME INCREMENT COMPLETED  5.000E-02,  FRACTION OF STEP COMPLETED  0.950    
 STEP TIME COMPLETED       0.950    ,  TOTAL TIME COMPLETED         1.95    


  INCREMENT    20 STARTS. ATTEMPT NUMBER  1, TIME INCREMENT  5.000E-02

  NUMBER OF EQUATIONS =      1335     NUMBER OF RHS =    1
  NUMBER OF FLOATING PT. OPERATIONS =  9.37E+06

  USING THE DIRECT SOLVER WITH  42 PROCESSORS

     CHECK POINT   START OF SOLVER    

     CHECK POINT  END OF SOLVER       

       ELAPSED USER TIME (SEC)      =  0.22000    
       ELAPSED SYSTEM TIME (SEC)    =  9.00000E-02
       ELAPSED TOTAL CPU TIME (SEC) =  0.31000    
       ELAPSED WALLCLOCK TIME (SEC) =          0

               CONVERGENCE CHECKS FOR EQUILIBRIUM ITERATION     1


 AVERAGE FORCE                       20.1       TIME AVG. FORCE        15.2    
 ALL FORCE     RESIDUALS ARE ZERO
 LARGEST INCREMENT OF DISP.         1.157E-02   AT NODE        152   DOF  3
 LARGEST CORRECTION TO DISP.        8.605E-06   AT NODE        152   DOF  2
[...]
   ELEMENT 182 IS DISTORTING EXCESSIVELY.
   ELEMENT 182 IS DISTORTING EXCESSIVELY.
   ELEMENT 182 IS DISTORTING EXCESSIVELY.
   ELEMENT 182 IS DISTORTING EXCESSIVELY.
   ELEMENT 212 IS DISTORTING EXCESSIVELY.
   ELEMENT 212 IS DISTORTING EXCESSIVELY.
   ELEMENT 212 IS DISTORTING EXCESSIVELY.
   ELEMENT 213 IS DISTORTING EXCESSIVELY.
   ELEMENT 213 IS DISTORTING EXCESSIVELY.
   ELEMENT 213 IS DISTORTING EXCESSIVELY.
   ELEMENT 213 IS DISTORTING EXCESSIVELY.
   ELEMENT 214 IS DISTORTING EXCESSIVELY.
   ELEMENT 214 IS DISTORTING EXCESSIVELY.
   ELEMENT 214 IS DISTORTING EXCESSIVELY.
   ELEMENT 214 IS DISTORTING EXCESSIVELY.
   ELEMENT 214 IS DISTORTING EXCESSIVELY.
   ELEMENT 214 IS DISTORTING EXCESSIVELY.
   ELEMENT 214 IS DISTORTING EXCESSIVELY.
   ELEMENT 215 IS DISTORTING EXCESSIVELY.
   ELEMENT 215 IS DISTORTING EXCESSIVELY.
   ELEMENT 215 IS DISTORTING EXCESSIVELY.
   ELEMENT 215 IS DISTORTING EXCESSIVELY.
   ELEMENT 215 IS DISTORTING EXCESSIVELY.
   ELEMENT 215 IS DISTORTING EXCESSIVELY.
   ELEMENT 215 IS DISTORTING EXCESSIVELY.
   ELEMENT 215 IS DISTORTING EXCESSIVELY.
   ELEMENT 216 IS DISTORTING EXCESSIVELY.
   ELEMENT 216 IS DISTORTING EXCESSIVELY.
   ELEMENT 216 IS DISTORTING EXCESSIVELY.
   ELEMENT 216 IS DISTORTING EXCESSIVELY.
   ELEMENT 216 IS DISTORTING EXCESSIVELY.
   ELEMENT 216 IS DISTORTING EXCESSIVELY.
   ELEMENT 216 IS DISTORTING EXCESSIVELY.
   ELEMENT 216 IS DISTORTING EXCESSIVELY.
   ELEMENT 217 IS DISTORTING EXCESSIVELY.
   ELEMENT 217 IS DISTORTING EXCESSIVELY.
   ELEMENT 217 IS DISTORTING EXCESSIVELY.
   ELEMENT 217 IS DISTORTING EXCESSIVELY.
   ELEMENT 217 IS DISTORTING EXCESSIVELY.
   ELEMENT 217 IS DISTORTING EXCESSIVELY.
   ELEMENT 217 IS DISTORTING EXCESSIVELY.
   ELEMENT 217 IS DISTORTING EXCESSIVELY.
   ELEMENT 218 IS DISTORTING EXCESSIVELY.
   ELEMENT 218 IS DISTORTING EXCESSIVELY.
   ELEMENT 218 IS DISTORTING EXCESSIVELY.
   ELEMENT 218 IS DISTORTING EXCESSIVELY.
   ELEMENT 218 IS DISTORTING EXCESSIVELY.
   ELEMENT 218 IS DISTORTING EXCESSIVELY.
   ELEMENT 218 IS DISTORTING EXCESSIVELY.
   ELEMENT 218 IS DISTORTING EXCESSIVELY.
   ELEMENT 252 IS DISTORTING EXCESSIVELY.
   ELEMENT 252 IS DISTORTING EXCESSIVELY.
   ELEMENT 252 IS DISTORTING EXCESSIVELY.
   ELEMENT 252 IS DISTORTING EXCESSIVELY.
   ELEMENT 252 IS DISTORTING EXCESSIVELY.
   ELEMENT 252 IS DISTORTING EXCESSIVELY.
   ELEMENT 252 IS DISTORTING EXCESSIVELY.
   ELEMENT 252 IS DISTORTING EXCESSIVELY.

 ***WARNING: EXCESSIVE DISTORTION AT A TOTAL OF 166 INTEGRATION POINTS IN SOLID 
             (CONTINUUM) ELEMENTS
 

 ***NOTE: ELEMENTS ARE DISTORTING EXCESSIVELY. CONVERGENCE IS JUDGED UNLIKELY.


  INCREMENT     2 STARTS. ATTEMPT NUMBER  2, TIME INCREMENT  1.250E-02

  NUMBER OF EQUATIONS =      1335     NUMBER OF RHS =    1
  NUMBER OF FLOATING PT. OPERATIONS =  9.37E+06

  USING THE DIRECT SOLVER WITH  42 PROCESSORS

     CHECK POINT   START OF SOLVER    

     CHECK POINT  END OF SOLVER       

       ELAPSED USER TIME (SEC)      =  0.32000    
       ELAPSED SYSTEM TIME (SEC)    =  6.00000E-02
       ELAPSED TOTAL CPU TIME (SEC) =  0.38000    
       ELAPSED WALLCLOCK TIME (SEC) =          0

               CONVERGENCE CHECKS FOR EQUILIBRIUM ITERATION     1


 AVERAGE FORCE                       124.       TIME AVG. FORCE        104.    
 ALL FORCE     RESIDUALS ARE ZERO
 LARGEST INCREMENT OF DISP.        -0.130       AT NODE        929   DOF  3
 LARGEST CORRECTION TO DISP.       -2.763E-03   AT NODE        929   DOF  2
          THE FORCE     EQUILIBRIUM RESPONSE WAS LINEAR IN THIS INCREMENT

 AVERAGE MOMENT                      0.00       TIME AVG. MOMENT       102.    
                                                (FROM FORCE     FIELD)
 ALL MOMENT    RESIDUALS ARE ZERO
 LARGEST INCREMENT OF ROTATION     -8.387E-03   AT NODE        148   DOF  4
 LARGEST CORRECTION TO ROTATION    -1.084E-19   AT NODE        148   DOF  6
          THERE IS ZERO MOMENT    EVERYWHERE
          TIME INCREMENT MAY NOW INCREASE TO    1.875E-02

 ITERATION SUMMARY FOR THE INCREMENT:   1 TOTAL ITERATIONS, OF WHICH
   0 ARE SEVERE DISCONTINUITY ITERATIONS AND  1 ARE EQUILIBRIUM ITERATIONS.

 TIME INCREMENT COMPLETED  1.250E-02,  FRACTION OF STEP COMPLETED  6.250E-02
 STEP TIME COMPLETED       6.250E-02,  TOTAL TIME COMPLETED         12.1    


  INCREMENT     3 STARTS. ATTEMPT NUMBER  1, TIME INCREMENT  1.875E-02

 ***WARNING: EXCESSIVE DISTORTION AT A TOTAL OF 39 INTEGRATION POINTS IN SOLID 
             (CONTINUUM) ELEMENTS


  INCREMENT     3 STARTS. ATTEMPT NUMBER  2, TIME INCREMENT  4.688E-03
 

 ***NOTE: ELEMENTS ARE DISTORTING EXCESSIVELY. CONVERGENCE IS JUDGED UNLIKELY.

  NUMBER OF EQUATIONS =      1335     NUMBER OF RHS =    1
  NUMBER OF FLOATING PT. OPERATIONS =  9.37E+06

  USING THE DIRECT SOLVER WITH  42 PROCESSORS

     CHECK POINT   START OF SOLVER    

     CHECK POINT  END OF SOLVER       

       ELAPSED USER TIME (SEC)      =  0.33000    
       ELAPSED SYSTEM TIME (SEC)    =  6.00000E-02
       ELAPSED TOTAL CPU TIME (SEC) =  0.39000    
       ELAPSED WALLCLOCK TIME (SEC) =          0

               CONVERGENCE CHECKS FOR EQUILIBRIUM ITERATION     1


 AVERAGE FORCE                       167.       TIME AVG. FORCE        125.    
 ALL FORCE     RESIDUALS ARE ZERO
 LARGEST INCREMENT OF DISP.        -4.861E-02   AT NODE        929   DOF  3
 LARGEST CORRECTION TO DISP.       -2.846E-04   AT NODE        929   DOF  2
          THE FORCE     EQUILIBRIUM RESPONSE WAS LINEAR IN THIS INCREMENT

 AVERAGE MOMENT                      0.00       TIME AVG. MOMENT       128.    
                                                (FROM FORCE     FIELD)
 ALL MOMENT    RESIDUALS ARE ZERO
 LARGEST INCREMENT OF ROTATION     -3.145E-03   AT NODE        148   DOF  4
 LARGEST CORRECTION TO ROTATION     3.036E-18   AT NODE        148   DOF  4
          THERE IS ZERO MOMENT    EVERYWHERE
          TIME INCREMENT MAY NOW INCREASE TO    7.031E-03

 ITERATION SUMMARY FOR THE INCREMENT:   1 TOTAL ITERATIONS, OF WHICH
   0 ARE SEVERE DISCONTINUITY ITERATIONS AND  1 ARE EQUILIBRIUM ITERATIONS.

 TIME INCREMENT COMPLETED  4.688E-03,  FRACTION OF STEP COMPLETED  6.719E-02
 STEP TIME COMPLETED       6.719E-02,  TOTAL TIME COMPLETED         12.1    
   ELEMENT 144 IS DISTORTING EXCESSIVELY.
   ELEMENT 144 IS DISTORTING EXCESSIVELY.
   ELEMENT 144 IS DISTORTING EXCESSIVELY.
   ELEMENT 145 IS DISTORTING EXCESSIVELY.
   ELEMENT 145 IS DISTORTING EXCESSIVELY.
   ELEMENT 145 IS DISTORTING EXCESSIVELY.
   ELEMENT 145 IS DISTORTING EXCESSIVELY.
   ELEMENT 146 IS DISTORTING EXCESSIVELY.
   ELEMENT 146 IS DISTORTING EXCESSIVELY.
   ELEMENT 146 IS DISTORTING EXCESSIVELY.
   ELEMENT 146 IS DISTORTING EXCESSIVELY.
   ELEMENT 146 IS DISTORTING EXCESSIVELY.
   ELEMENT 146 IS DISTORTING EXCESSIVELY.
   ELEMENT 146 IS DISTORTING EXCESSIVELY.
   ELEMENT 147 IS DISTORTING EXCESSIVELY.
   ELEMENT 147 IS DISTORTING EXCESSIVELY.
   ELEMENT 147 IS DISTORTING EXCESSIVELY.
   ELEMENT 147 IS DISTORTING EXCESSIVELY.
   ELEMENT 147 IS DISTORTING EXCESSIVELY.
   ELEMENT 147 IS DISTORTING EXCESSIVELY.
   ELEMENT 147 IS DISTORTING EXCESSIVELY.
   ELEMENT 147 IS DISTORTING EXCESSIVELY.
   ELEMENT 180 IS DISTORTING EXCESSIVELY.
   ELEMENT 181 IS DISTORTING EXCESSIVELY.
   ELEMENT 181 IS DISTORTING EXCESSIVELY.
   ELEMENT 181 IS DISTORTING EXCESSIVELY.
   ELEMENT 181 IS DISTORTING EXCESSIVELY.
   ELEMENT 182 IS DISTORTING EXCESSIVELY.
   ELEMENT 182 IS DISTORTING EXCESSIVELY.
   ELEMENT 182 IS DISTORTING EXCESSIVELY.
   ELEMENT 182 IS DISTORTING EXCESSIVELY.
   ELEMENT 182 IS DISTORTING EXCESSIVELY.
   ELEMENT 217 IS DISTORTING EXCESSIVELY.
   ELEMENT 217 IS DISTORTING EXCESSIVELY.
   ELEMENT 217 IS DISTORTING EXCESSIVELY.
   ELEMENT 218 IS DISTORTING EXCESSIVELY.
   ELEMENT 218 IS DISTORTING EXCESSIVELY.
   ELEMENT 218 IS DISTORTING EXCESSIVELY.
   ELEMENT 218 IS DISTORTING EXCESSIVELY.


  INCREMENT     4 STARTS. ATTEMPT NUMBER  1, TIME INCREMENT  7.031E-03

 ***WARNING: EXCESSIVE DISTORTION AT A TOTAL OF 6 INTEGRATION POINTS IN SOLID 
             (CONTINUUM) ELEMENTS


  INCREMENT     4 STARTS. ATTEMPT NUMBER  2, TIME INCREMENT  1.758E-03
 

 ***NOTE: ELEMENTS ARE DISTORTING EXCESSIVELY. CONVERGENCE IS JUDGED UNLIKELY.

  NUMBER OF EQUATIONS =      1335     NUMBER OF RHS =    1
  NUMBER OF FLOATING PT. OPERATIONS =  9.37E+06

  USING THE DIRECT SOLVER WITH  42 PROCESSORS

     CHECK POINT   START OF SOLVER    

     CHECK POINT  END OF SOLVER       

       ELAPSED USER TIME (SEC)      =  0.31000    
       ELAPSED SYSTEM TIME (SEC)    =  6.00000E-02
       ELAPSED TOTAL CPU TIME (SEC) =  0.37000    
       ELAPSED WALLCLOCK TIME (SEC) =          0

               CONVERGENCE CHECKS FOR EQUILIBRIUM ITERATION     1


 AVERAGE FORCE                       205.       TIME AVG. FORCE        145.    
 ALL FORCE     RESIDUALS ARE ZERO
 LARGEST INCREMENT OF DISP.        -1.823E-02   AT NODE        929   DOF  3
 LARGEST CORRECTION TO DISP.       -4.000E-05   AT NODE        929   DOF  2
          THE FORCE     EQUILIBRIUM RESPONSE WAS LINEAR IN THIS INCREMENT

 AVERAGE MOMENT                      0.00       TIME AVG. MOMENT       154.    
                                                (FROM FORCE     FIELD)
 ALL MOMENT    RESIDUALS ARE ZERO
 LARGEST INCREMENT OF ROTATION     -1.179E-03   AT NODE        148   DOF  4
 LARGEST CORRECTION TO ROTATION    -7.156E-18   AT NODE        148   DOF  4
          THERE IS ZERO MOMENT    EVERYWHERE
          TIME INCREMENT MAY NOW INCREASE TO    2.637E-03

 ITERATION SUMMARY FOR THE INCREMENT:   1 TOTAL ITERATIONS, OF WHICH
   0 ARE SEVERE DISCONTINUITY ITERATIONS AND  1 ARE EQUILIBRIUM ITERATIONS.

 TIME INCREMENT COMPLETED  1.758E-03,  FRACTION OF STEP COMPLETED  6.895E-02
 STEP TIME COMPLETED       6.895E-02,  TOTAL TIME COMPLETED         12.1    
   ELEMENT 146 IS DISTORTING EXCESSIVELY.
   ELEMENT 146 IS DISTORTING EXCESSIVELY.
   ELEMENT 147 IS DISTORTING EXCESSIVELY.
   ELEMENT 147 IS DISTORTING EXCESSIVELY.
   ELEMENT 147 IS DISTORTING EXCESSIVELY.
   ELEMENT 147 IS DISTORTING EXCESSIVELY.


  INCREMENT     5 STARTS. ATTEMPT NUMBER  1, TIME INCREMENT  2.637E-03

 ***WARNING: EXCESSIVE DISTORTION AT A TOTAL OF 2 INTEGRATION POINTS IN SOLID 
             (CONTINUUM) ELEMENTS


  INCREMENT     5 STARTS. ATTEMPT NUMBER  2, TIME INCREMENT  6.592E-04
 

 ***NOTE: ELEMENTS ARE DISTORTING EXCESSIVELY. CONVERGENCE IS JUDGED UNLIKELY.

  NUMBER OF EQUATIONS =      1335     NUMBER OF RHS =    1
  NUMBER OF FLOATING PT. OPERATIONS =  9.37E+06

  USING THE DIRECT SOLVER WITH  42 PROCESSORS

     CHECK POINT   START OF SOLVER    

     CHECK POINT  END OF SOLVER       

       ELAPSED USER TIME (SEC)      =  0.38000    
       ELAPSED SYSTEM TIME (SEC)    =  6.00000E-02
       ELAPSED TOTAL CPU TIME (SEC) =  0.44000    
       ELAPSED WALLCLOCK TIME (SEC) =          0

               CONVERGENCE CHECKS FOR EQUILIBRIUM ITERATION     1


 AVERAGE FORCE                       228.       TIME AVG. FORCE        161.    
 ALL FORCE     RESIDUALS ARE ZERO
 LARGEST INCREMENT OF DISP.        -6.835E-03   AT NODE        929   DOF  3
 LARGEST CORRECTION TO DISP.       -5.624E-06   AT NODE        929   DOF  2
          THE FORCE     EQUILIBRIUM RESPONSE WAS LINEAR IN THIS INCREMENT

 AVERAGE MOMENT                      0.00       TIME AVG. MOMENT       179.    
                                                (FROM FORCE     FIELD)
 ALL MOMENT    RESIDUALS ARE ZERO
 LARGEST INCREMENT OF ROTATION     -4.423E-04   AT NODE        148   DOF  4
 LARGEST CORRECTION TO ROTATION     8.619E-18   AT NODE        148   DOF  4
          THERE IS ZERO MOMENT    EVERYWHERE
          TIME INCREMENT MAY NOW INCREASE TO    9.888E-04

 ITERATION SUMMARY FOR THE INCREMENT:   1 TOTAL ITERATIONS, OF WHICH
   0 ARE SEVERE DISCONTINUITY ITERATIONS AND  1 ARE EQUILIBRIUM ITERATIONS.

 TIME INCREMENT COMPLETED  6.592E-04,  FRACTION OF STEP COMPLETED  6.960E-02
 STEP TIME COMPLETED       6.960E-02,  TOTAL TIME COMPLETED         12.1    
   ELEMENT 147 IS DISTORTING EXCESSIVELY.
   ELEMENT 147 IS DISTORTING EXCESSIVELY.


  INCREMENT     6 STARTS. ATTEMPT NUMBER  1, TIME INCREMENT  9.888E-04

 ***WARNING: EXCESSIVE DISTORTION AT A TOTAL OF 1 INTEGRATION POINTS IN SOLID 
             (CONTINUUM) ELEMENTS


  INCREMENT     6 STARTS. ATTEMPT NUMBER  2, TIME INCREMENT  2.472E-04
 

 ***NOTE: ELEMENTS ARE DISTORTING EXCESSIVELY. CONVERGENCE IS JUDGED UNLIKELY.

  NUMBER OF EQUATIONS =      1335     NUMBER OF RHS =    1
  NUMBER OF FLOATING PT. OPERATIONS =  9.37E+06

  USING THE DIRECT SOLVER WITH  42 PROCESSORS

     CHECK POINT   START OF SOLVER    

     CHECK POINT  END OF SOLVER       

       ELAPSED USER TIME (SEC)      =  0.21000    
       ELAPSED SYSTEM TIME (SEC)    =  0.13000    
       ELAPSED TOTAL CPU TIME (SEC) =  0.34000    
       ELAPSED WALLCLOCK TIME (SEC) =          0

               CONVERGENCE CHECKS FOR EQUILIBRIUM ITERATION     1


 AVERAGE FORCE                       240.       TIME AVG. FORCE        174.    
 ALL FORCE     RESIDUALS ARE ZERO
 LARGEST INCREMENT OF DISP.        -2.563E-03   AT NODE        929   DOF  3
 LARGEST CORRECTION TO DISP.       -7.909E-07   AT NODE        929   DOF  2
          THE FORCE     EQUILIBRIUM RESPONSE WAS LINEAR IN THIS INCREMENT

 AVERAGE MOMENT                      0.00       TIME AVG. MOMENT       199.    
                                                (FROM FORCE     FIELD)
 ALL MOMENT    RESIDUALS ARE ZERO
 LARGEST INCREMENT OF ROTATION     -1.659E-04   AT NODE        148   DOF  4
 LARGEST CORRECTION TO ROTATION    -2.076E-17   AT NODE        148   DOF  4
          THERE IS ZERO MOMENT    EVERYWHERE
          TIME INCREMENT MAY NOW INCREASE TO    3.708E-04

 ITERATION SUMMARY FOR THE INCREMENT:   1 TOTAL ITERATIONS, OF WHICH
   0 ARE SEVERE DISCONTINUITY ITERATIONS AND  1 ARE EQUILIBRIUM ITERATIONS.

 TIME INCREMENT COMPLETED  2.472E-04,  FRACTION OF STEP COMPLETED  6.985E-02
 STEP TIME COMPLETED       6.985E-02,  TOTAL TIME COMPLETED         12.1    
   ELEMENT 147 IS DISTORTING EXCESSIVELY.


  INCREMENT     7 STARTS. ATTEMPT NUMBER  1, TIME INCREMENT  3.708E-04

  NUMBER OF EQUATIONS =      1335     NUMBER OF RHS =    1
  NUMBER OF FLOATING PT. OPERATIONS =  9.37E+06

  USING THE DIRECT SOLVER WITH  42 PROCESSORS

     CHECK POINT   START OF SOLVER    

     CHECK POINT  END OF SOLVER       

       ELAPSED USER TIME (SEC)      =  0.28000    
       ELAPSED SYSTEM TIME (SEC)    =  7.00000E-02
       ELAPSED TOTAL CPU TIME (SEC) =  0.35000    
       ELAPSED WALLCLOCK TIME (SEC) =          0

               CONVERGENCE CHECKS FOR EQUILIBRIUM ITERATION     1


 AVERAGE FORCE                       255.       TIME AVG. FORCE        186.    
 ALL FORCE     RESIDUALS ARE ZERO
 LARGEST INCREMENT OF DISP.        -3.844E-03   AT NODE        929   DOF  3
 LARGEST CORRECTION TO DISP.       -8.088E-07   AT NODE        929   DOF  2
          THE FORCE     EQUILIBRIUM RESPONSE WAS LINEAR IN THIS INCREMENT

 AVERAGE MOMENT                      0.00       TIME AVG. MOMENT       215.    
                                                (FROM FORCE     FIELD)
 ALL MOMENT    RESIDUALS ARE ZERO
 LARGEST INCREMENT OF ROTATION     -2.488E-04   AT NODE        148   DOF  4
 LARGEST CORRECTION TO ROTATION     2.781E-17   AT NODE        148   DOF  4
          THERE IS ZERO MOMENT    EVERYWHERE
          TIME INCREMENT MAY NOW INCREASE TO    5.562E-04

 ITERATION SUMMARY FOR THE INCREMENT:   1 TOTAL ITERATIONS, OF WHICH
   0 ARE SEVERE DISCONTINUITY ITERATIONS AND  1 ARE EQUILIBRIUM ITERATIONS.

 TIME INCREMENT COMPLETED  3.708E-04,  FRACTION OF STEP COMPLETED  7.022E-02
 STEP TIME COMPLETED       7.022E-02,  TOTAL TIME COMPLETED         12.1    


  INCREMENT     8 STARTS. ATTEMPT NUMBER  1, TIME INCREMENT  5.562E-04

 ***WARNING: EXCESSIVE DISTORTION AT A TOTAL OF 1 INTEGRATION POINTS IN SOLID 
             (CONTINUUM) ELEMENTS


  INCREMENT     8 STARTS. ATTEMPT NUMBER  2, TIME INCREMENT  1.390E-04
 

 ***NOTE: ELEMENTS ARE DISTORTING EXCESSIVELY. CONVERGENCE IS JUDGED UNLIKELY.
   ELEMENT 147 IS DISTORTING EXCESSIVELY.

 ***WARNING: EXCESSIVE DISTORTION AT A TOTAL OF 1 INTEGRATION POINTS IN SOLID 
             (CONTINUUM) ELEMENTS
 

 ***NOTE: ELEMENTS ARE DISTORTING EXCESSIVELY. CONVERGENCE IS JUDGED UNLIKELY.


  INCREMENT     8 STARTS. ATTEMPT NUMBER  3, TIME INCREMENT  5.000E-05

  NUMBER OF EQUATIONS =      1335     NUMBER OF RHS =    1
  NUMBER OF FLOATING PT. OPERATIONS =  9.37E+06

  USING THE DIRECT SOLVER WITH  42 PROCESSORS

     CHECK POINT   START OF SOLVER    

     CHECK POINT  END OF SOLVER       

       ELAPSED USER TIME (SEC)      =  0.32000    
       ELAPSED SYSTEM TIME (SEC)    =  7.00000E-02
       ELAPSED TOTAL CPU TIME (SEC) =  0.39000    
       ELAPSED WALLCLOCK TIME (SEC) =          1

               CONVERGENCE CHECKS FOR EQUILIBRIUM ITERATION     1


 AVERAGE FORCE                       261.       TIME AVG. FORCE        195.    
 ALL FORCE     RESIDUALS ARE ZERO
 LARGEST INCREMENT OF DISP.        -5.184E-04   AT NODE        929   DOF  3
 LARGEST CORRECTION TO DISP.       -7.426E-08   AT NODE        929   DOF  2
          THE FORCE     EQUILIBRIUM RESPONSE WAS LINEAR IN THIS INCREMENT

 AVERAGE MOMENT                      0.00       TIME AVG. MOMENT       230.    
                                                (FROM FORCE     FIELD)
 ALL MOMENT    RESIDUALS ARE ZERO
 LARGEST INCREMENT OF ROTATION     -3.355E-05   AT NODE        148   DOF  4
 LARGEST CORRECTION TO ROTATION     2.053E-17   AT NODE        148   DOF  4
          THERE IS ZERO MOMENT    EVERYWHERE
          TIME INCREMENT MAY NOW INCREASE TO    7.500E-05

 ITERATION SUMMARY FOR THE INCREMENT:   1 TOTAL ITERATIONS, OF WHICH
   0 ARE SEVERE DISCONTINUITY ITERATIONS AND  1 ARE EQUILIBRIUM ITERATIONS.

 TIME INCREMENT COMPLETED  5.000E-05,  FRACTION OF STEP COMPLETED  7.027E-02
 STEP TIME COMPLETED       7.027E-02,  TOTAL TIME COMPLETED         12.1    
   ELEMENT 147 IS DISTORTING EXCESSIVELY.


  INCREMENT     9 STARTS. ATTEMPT NUMBER  1, TIME INCREMENT  7.500E-05

 ***WARNING: EXCESSIVE DISTORTION AT A TOTAL OF 1 INTEGRATION POINTS IN SOLID 
             (CONTINUUM) ELEMENTS


  INCREMENT     9 STARTS. ATTEMPT NUMBER  2, TIME INCREMENT  5.000E-05
 

 ***NOTE: ELEMENTS ARE DISTORTING EXCESSIVELY. CONVERGENCE IS JUDGED UNLIKELY.
   ELEMENT 147 IS DISTORTING EXCESSIVELY.

 ***WARNING: EXCESSIVE DISTORTION AT A TOTAL OF 1 INTEGRATION POINTS IN SOLID 
             (CONTINUUM) ELEMENTS
 

 ***NOTE: ELEMENTS ARE DISTORTING EXCESSIVELY. CONVERGENCE IS JUDGED UNLIKELY.
 

 ***ERROR: TIME INCREMENT REQUIRED IS LESS THAN THE MINIMUM SPECIFIED
   ELEMENT 147 IS DISTORTING EXCESSIVELY.

 ***ERROR: THE ANALYSIS HAS BEEN TERMINATED DUE TO PREVIOUS ERRORS. ALL OUTPUT 
           REQUESTS HAVE BEEN WRITTEN FOR THE LAST CONVERGED INCREMENT.



     ANALYSIS SUMMARY:
     TOTAL OF        249  INCREMENTS
                       9  CUTBACKS IN AUTOMATIC INCREMENTATION
                     248  ITERATIONS INCLUDING CONTACT ITERATIONS IF PRESENT
                     248  PASSES THROUGH THE EQUATION SOLVER OF WHICH 
                     248  INVOLVE MATRIX DECOMPOSITION, INCLUDING
                       0  DECOMPOSITION(S) OF THE MASS MATRIX
                       1  REORDERING OF EQUATIONS TO MINIMIZE WAVEFRONT
                       0  ADDITIONAL RESIDUAL EVALUATIONS FOR LINE SEARCHES
                       0  ADDITIONAL OPERATOR EVALUATIONS FOR LINE SEARCHES
                     590  WARNING MESSAGES DURING USER INPUT PROCESSING
                       9  WARNING MESSAGES DURING ANALYSIS
                       0  ANALYSIS WARNINGS ARE NUMERICAL PROBLEM MESSAGES
                       0  ANALYSIS WARNINGS ARE NEGATIVE EIGENVALUE MESSAGES
                       2  ERROR MESSAGES



     JOB TIME SUMMARY
       USER TIME (SEC)      =   366.43    
       SYSTEM TIME (SEC)    =   120.67    
       TOTAL CPU TIME (SEC) =   487.10    
       WALLCLOCK TIME (SEC) =         36
