 Abaqus/Standard 2021.HF4                  DATE 24-Feb-2023 TIME 15:36:00
 SUMMARY OF JOB INFORMATION:
 STEP  INC ATT SEVERE EQUIL TOTAL  TOTAL      STEP       INC OF       DOF    IF
               DISCON ITERS ITERS  TIME/    TIME/LPF    TIME/LPF    MONITOR RIKS
               ITERS               FREQ
   1     1   1     0     1     1  0.0500     0.0500     0.05000   
   1     2   1     0     1     1  0.100      0.100      0.05000   
   1     3   1     0     1     1  0.150      0.150      0.05000   
   1     4   1     0     1     1  0.200      0.200      0.05000   
   1     5   1     0     1     1  0.250      0.250      0.05000   
   1     6   1     0     1     1  0.300      0.300      0.05000   
   1     7   1     0     1     1  0.350      0.350      0.05000   
   1     8   1     0     1     1  0.400      0.400      0.05000   
   1     9   1     0     1     1  0.450      0.450      0.05000   
   1    10   1     0     1     1  0.500      0.500      0.05000   
   1    11   1     0     1     1  0.550      0.550      0.05000   
   1    12   1     0     1     1  0.600      0.600      0.05000   
   1    13   1     0     1     1  0.650      0.650      0.05000   
   1    14   1     0     1     1  0.700      0.700      0.05000   
   1    15   1     0     1     1  0.750      0.750      0.05000   
   1    16   1     0     1     1  0.800      0.800      0.05000   
   1    17   1     0     1     1  0.850      0.850      0.05000   
   1    18   1     0     1     1  0.900      0.900      0.05000   
   1    19   1     0     1     1  0.950      0.950      0.05000   
   1    20   1     0     1     1  1.00       1.00       0.05000   
   2     1   1     0     1     1  1.05       0.0500     0.05000   
   2     2   1     0     1     1  1.10       0.100      0.05000   
   2     3   1     0     1     1  1.15       0.150      0.05000   
   2     4   1     0     1     1  1.20       0.200      0.05000   
   2     5   1     0     1     1  1.25       0.250      0.05000   
   2     6   1     0     1     1  1.30       0.300      0.05000   
   2     7   1     0     1     1  1.35       0.350      0.05000   
   2     8   1     0     1     1  1.40       0.400      0.05000   
   2     9   1     0     1     1  1.45       0.450      0.05000   
   2    10   1     0     1     1  1.50       0.500      0.05000   
   2    11   1     0     1     1  1.55       0.550      0.05000   
   2    12   1     0     1     1  1.60       0.600      0.05000   
   2    13   1     0     1     1  1.65       0.650      0.05000   
   2    14   1     0     1     1  1.70       0.700      0.05000   
   2    15   1     0     1     1  1.75       0.750      0.05000   
   2    16   1     0     1     1  1.80       0.800      0.05000   
   2    17   1     0     1     1  1.85       0.850      0.05000   
   2    18   1     0     1     1  1.90       0.900      0.05000   
   2    19   1     0     1     1  1.95       0.950      0.05000   
   2    20   1     0     1     1  2.00       1.00       0.05000   
   3     1   1     0     1     1  2.05       0.0500     0.05000   
   3     2   1     0     1     1  2.10       0.100      0.05000   
   3     3   1     0     1     1  2.15       0.150      0.05000   
   3     4   1     0     1     1  2.20       0.200      0.05000   
   3     5   1     0     1     1  2.25       0.250      0.05000   
   3     6   1     0     1     1  2.30       0.300      0.05000   
   3     7   1     0     1     1  2.35       0.350      0.05000   
   3     8   1     0     1     1  2.40       0.400      0.05000   
   3     9   1     0     1     1  2.45       0.450      0.05000   
   3    10   1     0     1     1  2.50       0.500      0.05000   
   3    11   1     0     1     1  2.55       0.550      0.05000   
   3    12   1U    0     1     1  2.55       0.550      0.05000   
   3    12   2     0     1     1  2.56       0.562      0.01250   
   3    13   1U    0     1     1  2.56       0.562      0.01875   
   3    13   2     0     1     1  2.57       0.567      0.004688  
   3    14   1     0     1     1  2.57       0.574      0.007031  
   3    15   1U    0     1     1  2.57       0.574      0.01055   
   3    15   2     0     1     1  2.58       0.577      0.002637  
   3    16   1U    0     1     1  2.58       0.577      0.003955  
   3    16   2     0     1     1  2.58       0.578      0.0009888 
   3    17   1     0     1     1  2.58       0.579      0.001483  
   3    18   1U    0     1     1  2.58       0.579      0.002225  
   3    18   2     0     1     1  2.58       0.580      0.0005562 
   3    19   1U    0     1     1  2.58       0.580      0.0008343 
   3    19   2U    0     1     1  2.58       0.580      0.0002086 
   3    19   3     0     1     1  2.58       0.580      5.214e-05 
   3    20   1     0     1     1  2.58       0.580      7.821e-05 
   3    21   1U    0     1     1  2.58       0.580      0.0001173 
   3    21   2U    0     0     0  2.58       0.580      5.000e-05 
                          
 THE ANALYSIS HAS NOT BEEN COMPLETED
