1

   Abaqus 2021                                  Date 04-Mar-2023   Time 12:49:00
   For use by UNIVERSITAET BERN under license from Dassault Systemes or its subsidiary.

                                                                                 
                                                                                 
 STEP    1     INCREMENT     1     STEP TIME    0.00    


                        S T E P       1     S T A T I C   A N A L Y S I S


                                                                                          

     AUTOMATIC TIME CONTROL WITH -
          A SUGGESTED INITIAL TIME INCREMENT OF                5.000E-02
          AND A TOTAL TIME PERIOD OF                            1.00    
          THE MINIMUM TIME INCREMENT ALLOWED IS                5.000E-05
          THE MAXIMUM TIME INCREMENT ALLOWED IS                5.000E-02

     LINEAR EQUATION SOLVER TYPE         DIRECT SPARSE

 CONVERGENCE TOLERANCE PARAMETERS FOR FORCE    
     CRITERION FOR RESIDUAL FORCE     FOR A NONLINEAR PROBLEM          5.000E-03
     CRITERION FOR DISP.    CORRECTION IN A NONLINEAR PROBLEM          1.000E-02
     INITIAL VALUE OF TIME AVERAGE FORCE                               1.000E-02
     AVERAGE FORCE     IS TIME AVERAGE FORCE    
     ALTERNATE CRIT. FOR RESIDUAL FORCE     FOR A NONLINEAR PROBLEM    2.000E-02
     CRITERION FOR ZERO FORCE     RELATIVE TO TIME AVRG. FORCE         1.000E-05
     CRITERION FOR RESIDUAL FORCE     WHEN THERE IS ZERO FLUX          1.000E-05
     CRITERION FOR DISP.    CORRECTION WHEN THERE IS ZERO FLUX         1.000E-03
     CRITERION FOR RESIDUAL FORCE     FOR A LINEAR INCREMENT           1.000E-08
     FIELD CONVERSION RATIO                                             1.00    
     CRITERION FOR ZERO FORCE     REL. TO TIME AVRG. MAX. FORCE        1.000E-05
     CRITERION FOR ZERO DISP.    RELATIVE TO CHARACTERISTIC LENGTH     1.000E-08

 CONVERGENCE TOLERANCE PARAMETERS FOR MOMENT   
     CRITERION FOR RESIDUAL MOMENT    FOR A NONLINEAR PROBLEM          5.000E-03
     CRITERION FOR ROTATION CORRECTION IN A NONLINEAR PROBLEM          1.000E-02
     INITIAL VALUE OF TIME AVERAGE MOMENT                              1.000E-02
     AVERAGE MOMENT    IS TIME AVERAGE MOMENT   
     ALTERNATE CRIT. FOR RESIDUAL MOMENT    FOR A NONLINEAR PROBLEM    2.000E-02
     CRITERION FOR ZERO MOMENT    RELATIVE TO TIME AVRG. MOMENT        1.000E-05
     CRITERION FOR RESIDUAL MOMENT    WHEN THERE IS ZERO FLUX          1.000E-05
     CRITERION FOR ROTATION CORRECTION WHEN THERE IS ZERO FLUX         1.000E-03
     CRITERION FOR RESIDUAL MOMENT    FOR A LINEAR INCREMENT           1.000E-08
     FIELD CONVERSION RATIO                                             1.00    
     CRITERION FOR ZERO MOMENT    REL. TO TIME AVRG. MAX. MOMENT       1.000E-05

     VOLUMETRIC STRAIN COMPATIBILITY TOLERANCE FOR HYBRID SOLIDS       1.000E-05
     AXIAL STRAIN COMPATIBILITY TOLERANCE FOR HYBRID BEAMS             1.000E-05
     TRANS. SHEAR STRAIN COMPATIBILITY TOLERANCE FOR HYBRID BEAMS      1.000E-05
     SOFT CONTACT CONSTRAINT COMPATIBILITY TOLERANCE FOR P>P0          5.000E-03
     SOFT CONTACT CONSTRAINT COMPATIBILITY TOLERANCE FOR P=0.0         0.100    
     CONTACT FORCE ERROR TOLERANCE FOR CONVERT SDI=YES                 1.00    
     DISPLACEMENT COMPATIBILITY TOLERANCE FOR DCOUP ELEMENTS           1.000E-05
     ROTATION COMPATIBILITY TOLERANCE FOR DCOUP ELEMENTS               1.000E-05

 EQUILIBRIUM WILL BE CHECKED FOR SEVERE DISCONTINUITY ITERATIONS

 TIME INCREMENTATION CONTROL PARAMETERS:
     FIRST EQUILIBRIUM ITERATION FOR CONSECUTIVE DIVERGENCE CHECK              4
     EQUILIBRIUM ITERATION AT WHICH LOG. CONVERGENCE RATE CHECK BEGINS         8
     EQUILIBRIUM ITERATION AFTER WHICH ALTERNATE RESIDUAL IS USED              9
     MAXIMUM EQUILIBRIUM ITERATIONS ALLOWED                                   16
     EQUILIBRIUM ITERATION COUNT FOR CUT-BACK IN NEXT INCREMENT               10
     MAXIMUM EQUILIB. ITERS IN TWO INCREMENTS FOR TIME INCREMENT INCREASE      4
     MAXIMUM ITERATIONS FOR SEVERE DISCONTINUITIES                            50
     MAXIMUM ATTEMPTS ALLOWED IN AN INCREMENT                                  5
     MAXIMUM DISCON. ITERS IN TWO INCREMENTS FOR TIME INCREMENT INCREASE      50
     MAXIMUM CONTACT AUGMENTATIONS FOR *SURFACE BEHAVIOR,AUGMENTED LAGRANGE   50
     CUT-BACK FACTOR AFTER DIVERGENCE                                 0.2500    
     CUT-BACK FACTOR FOR TOO SLOW CONVERGENCE                         0.5000    
     CUT-BACK FACTOR AFTER TOO MANY EQUILIBRIUM ITERATIONS            0.7500    
     CUT-BACK FACTOR AFTER TOO MANY SEVERE DISCONTINUITY ITERATIONS   0.2500    
     CUT-BACK FACTOR AFTER PROBLEMS IN ELEMENT ASSEMBLY               0.2500    
     INCREASE FACTOR AFTER TWO INCREMENTS THAT CONVERGE QUICKLY        1.500    
     MAX. TIME INCREMENT INCREASE FACTOR ALLOWED                       1.500    
     MAX. TIME INCREMENT INCREASE FACTOR ALLOWED (DYNAMICS)            1.250    
     MAX. TIME INCREMENT INCREASE FACTOR ALLOWED (DIFFUSION)           2.000    
     MINIMUM TIME INCREMENT RATIO FOR EXTRAPOLATION TO OCCUR          0.1000    
     MAX. RATIO OF TIME INCREMENT TO STABILITY LIMIT                   1.000    
     FRACTION OF STABILITY LIMIT FOR NEW TIME INCREMENT               0.9500    
     TIME INCREMENT INCREASE FACTOR BEFORE A TIME POINT                1.000    
     GLOBAL STABILIZATION CONTROL IS NOT USED

          PRINT OF INCREMENT NUMBER, TIME, ETC., EVERY    1  INCREMENTS

     THE MAXIMUM NUMBER OF INCREMENTS IN THIS STEP IS                    1000

          LARGE DISPLACEMENT THEORY WILL BE USED

          UNSYMMETRIC MATRIX STORAGE AND SOLUTION WILL BE USED

     LINEAR EXTRAPOLATION WILL BE USED

     CHARACTERISTIC ELEMENT LENGTH      1.23    

     DETAILS REGARDING ACTUAL SOLUTION WAVEFRONT REQUESTED

     DETAILED OUTPUT OF DIAGNOSTICS TO DATABASE REQUESTED

     PRINT OF INCREMENT NUMBER, TIME, ETC., TO THE MESSAGE FILE EVERY     1  INCREMENTS

     ELEMENT OPERATIONS WILL BE CARRIED OUT IN PARALLEL USING  42 PROCESSORS

     PARALLEL CONTACT TRACKING ENABLED


     COLLECTING MODEL CONSTRAINT INFORMATION FOR OVERCONSTRAINT CHECKS

     COLLECTING STEP CONSTRAINT INFORMATION FOR OVERCONSTRAINT CHECKS


  INCREMENT     1 STARTS. ATTEMPT NUMBER  1, TIME INCREMENT  5.000E-02
 
     INITIAL ELEMENT LOAD BALANCE
            PROCESS    1   THREAD     NUMBER OF ELEMENTS
                              1            10
                              2            10
                              3            10
                              4            10
                              5            10
                              6            10
                              7            10
                              8            10
                              9            10
                             10            10
                             11            10
                             12            10
                             13            10
                             14            10
                             15            10
                             16            10
                             17            10
                             18            10
                             19            10
                             20            10
                             21            10
                             22            10
                             23            10
                             24            14
                             25            10
                             26            10
                             27            10
                             28            10
                             29            10
                             30            10
                             31            10
                             32            10
                             33            10
                             34            10
                             35            10
                             36            10
                             37            10
                             38            10
                             39            10
                             40            10
                             41            10
                             42            10

  NUMBER OF EQUATIONS =      1419     NUMBER OF RHS =    1
  NUMBER OF FLOATING PT. OPERATIONS =  1.06E+07

  USING THE DIRECT SOLVER WITH  42 PROCESSORS

     CHECK POINT   START OF SOLVER    

     CHECK POINT  END OF SOLVER       

       ELAPSED USER TIME (SEC)      =   3.6300    
       ELAPSED SYSTEM TIME (SEC)    =  0.11000    
       ELAPSED TOTAL CPU TIME (SEC) =   3.7400    
       ELAPSED WALLCLOCK TIME (SEC) =          0

               CONVERGENCE CHECKS FOR EQUILIBRIUM ITERATION     1


 AVERAGE FORCE                       1.33       TIME AVG. FORCE        1.33    
 ALL FORCE     RESIDUALS ARE ZERO
 LARGEST INCREMENT OF DISP.         2.050E-03   AT NODE        323   DOF  3
 LARGEST CORRECTION TO DISP.        2.050E-03   AT NODE        323   DOF  3
          THE FORCE     EQUILIBRIUM RESPONSE WAS LINEAR IN THIS INCREMENT

 AVERAGE MOMENT                      0.00       TIME AVG. MOMENT       1.65    
                                                (FROM FORCE     FIELD)
 ALL MOMENT    RESIDUALS ARE ZERO
 LARGEST INCREMENT OF ROTATION      6.565E-33   AT NODE        323   DOF  4
 LARGEST CORRECTION TO ROTATION     6.565E-33   AT NODE        323   DOF  4
          THERE IS ZERO MOMENT    EVERYWHERE

 ITERATION SUMMARY FOR THE INCREMENT:   1 TOTAL ITERATIONS, OF WHICH
   0 ARE SEVERE DISCONTINUITY ITERATIONS AND  1 ARE EQUILIBRIUM ITERATIONS.

 TIME INCREMENT COMPLETED  5.000E-02,  FRACTION OF STEP COMPLETED  5.000E-02
 STEP TIME COMPLETED       5.000E-02,  TOTAL TIME COMPLETED        5.000E-02


  INCREMENT     2 STARTS. ATTEMPT NUMBER  1, TIME INCREMENT  5.000E-02

  NUMBER OF EQUATIONS =      1419     NUMBER OF RHS =    1
  NUMBER OF FLOATING PT. OPERATIONS =  1.06E+07

  USING THE DIRECT SOLVER WITH  42 PROCESSORS

     CHECK POINT   START OF SOLVER    

     CHECK POINT  END OF SOLVER       

       ELAPSED USER TIME (SEC)      =  0.52000    
       ELAPSED SYSTEM TIME (SEC)    =  0.12000    
       ELAPSED TOTAL CPU TIME (SEC) =  0.64000    
       ELAPSED WALLCLOCK TIME (SEC) =          0

               CONVERGENCE CHECKS FOR EQUILIBRIUM ITERATION     1


 AVERAGE FORCE                       2.67       TIME AVG. FORCE        2.00    
 ALL FORCE     RESIDUALS ARE ZERO
 LARGEST INCREMENT OF DISP.         2.050E-03   AT NODE        323   DOF  3
 LARGEST CORRECTION TO DISP.       -8.905E-33   AT NODE        323   DOF  3
          THE FORCE     EQUILIBRIUM RESPONSE WAS LINEAR IN THIS INCREMENT

 AVERAGE MOMENT                      0.00       TIME AVG. MOMENT       1.65    
                                                (FROM FORCE     FIELD)
 ALL MOMENT    RESIDUALS ARE ZERO
 LARGEST INCREMENT OF ROTATION      1.313E-32   AT NODE        323   DOF  4
 LARGEST CORRECTION TO ROTATION     6.566E-33   AT NODE        323   DOF  4
          THERE IS ZERO MOMENT    EVERYWHERE

 ITERATION SUMMARY FOR THE INCREMENT:   1 TOTAL ITERATIONS, OF WHICH
   0 ARE SEVERE DISCONTINUITY ITERATIONS AND  1 ARE EQUILIBRIUM ITERATIONS.

 TIME INCREMENT COMPLETED  5.000E-02,  FRACTION OF STEP COMPLETED  0.100    
 STEP TIME COMPLETED       0.100    ,  TOTAL TIME COMPLETED        0.100    


  INCREMENT     3 STARTS. ATTEMPT NUMBER  1, TIME INCREMENT  5.000E-02

  NUMBER OF EQUATIONS =      1419     NUMBER OF RHS =    1
  NUMBER OF FLOATING PT. OPERATIONS =  1.06E+07

  USING THE DIRECT SOLVER WITH  42 PROCESSORS

     CHECK POINT   START OF SOLVER    

     CHECK POINT  END OF SOLVER       

       ELAPSED USER TIME (SEC)      =   1.3500    
       ELAPSED SYSTEM TIME (SEC)    =  0.11000    
       ELAPSED TOTAL CPU TIME (SEC) =   1.4600    
       ELAPSED WALLCLOCK TIME (SEC) =          0

               CONVERGENCE CHECKS FOR EQUILIBRIUM ITERATION     1


 AVERAGE FORCE                       4.00       TIME AVG. FORCE        2.67    
 ALL FORCE     RESIDUALS ARE ZERO
 LARGEST INCREMENT OF DISP.         2.050E-03   AT NODE        323   DOF  3
 LARGEST CORRECTION TO DISP.        4.337E-19   AT NODE        323   DOF  3
          THE FORCE     EQUILIBRIUM RESPONSE WAS LINEAR IN THIS INCREMENT

 AVERAGE MOMENT                      0.00       TIME AVG. MOMENT       2.47    
                                                (FROM FORCE     FIELD)
 ALL MOMENT    RESIDUALS ARE ZERO
 LARGEST INCREMENT OF ROTATION      1.971E-32   AT NODE        323   DOF  4
 LARGEST CORRECTION TO ROTATION     6.583E-33   AT NODE        323   DOF  4
          THERE IS ZERO MOMENT    EVERYWHERE

 ITERATION SUMMARY FOR THE INCREMENT:   1 TOTAL ITERATIONS, OF WHICH
   0 ARE SEVERE DISCONTINUITY ITERATIONS AND  1 ARE EQUILIBRIUM ITERATIONS.

 TIME INCREMENT COMPLETED  5.000E-02,  FRACTION OF STEP COMPLETED  0.150    
 STEP TIME COMPLETED       0.150    ,  TOTAL TIME COMPLETED        0.150    


  INCREMENT     4 STARTS. ATTEMPT NUMBER  1, TIME INCREMENT  5.000E-02

  NUMBER OF EQUATIONS =      1419     NUMBER OF RHS =    1
  NUMBER OF FLOATING PT. OPERATIONS =  1.06E+07

  USING THE DIRECT SOLVER WITH  42 PROCESSORS

     CHECK POINT   START OF SOLVER    

     CHECK POINT  END OF SOLVER       

       ELAPSED USER TIME (SEC)      =  0.31000    
       ELAPSED SYSTEM TIME (SEC)    =  0.11000    
       ELAPSED TOTAL CPU TIME (SEC) =  0.42000    
       ELAPSED WALLCLOCK TIME (SEC) =          0

               CONVERGENCE CHECKS FOR EQUILIBRIUM ITERATION     1


 AVERAGE FORCE                       5.32       TIME AVG. FORCE        3.33    
 ALL FORCE     RESIDUALS ARE ZERO
 LARGEST INCREMENT OF DISP.         2.050E-03   AT NODE        323   DOF  3
 LARGEST CORRECTION TO DISP.       -2.602E-18   AT NODE        323   DOF  3
          THE FORCE     EQUILIBRIUM RESPONSE WAS LINEAR IN THIS INCREMENT

 AVERAGE MOMENT                      0.00       TIME AVG. MOMENT       3.29    
                                                (FROM FORCE     FIELD)
 ALL MOMENT    RESIDUALS ARE ZERO
 LARGEST INCREMENT OF ROTATION      2.617E-32   AT NODE        323   DOF  4
 LARGEST CORRECTION TO ROTATION     6.451E-33   AT NODE        323   DOF  4
          THERE IS ZERO MOMENT    EVERYWHERE

 ITERATION SUMMARY FOR THE INCREMENT:   1 TOTAL ITERATIONS, OF WHICH
   0 ARE SEVERE DISCONTINUITY ITERATIONS AND  1 ARE EQUILIBRIUM ITERATIONS.

 TIME INCREMENT COMPLETED  5.000E-02,  FRACTION OF STEP COMPLETED  0.200    
 STEP TIME COMPLETED       0.200    ,  TOTAL TIME COMPLETED        0.200    


  INCREMENT     5 STARTS. ATTEMPT NUMBER  1, TIME INCREMENT  5.000E-02

  NUMBER OF EQUATIONS =      1419     NUMBER OF RHS =    1
  NUMBER OF FLOATING PT. OPERATIONS =  1.06E+07

  USING THE DIRECT SOLVER WITH  42 PROCESSORS

     CHECK POINT   START OF SOLVER    

     CHECK POINT  END OF SOLVER       

       ELAPSED USER TIME (SEC)      =  0.33000    
       ELAPSED SYSTEM TIME (SEC)    =  5.00000E-02
       ELAPSED TOTAL CPU TIME (SEC) =  0.38000    
       ELAPSED WALLCLOCK TIME (SEC) =          0

               CONVERGENCE CHECKS FOR EQUILIBRIUM ITERATION     1


 AVERAGE FORCE                       6.32       TIME AVG. FORCE        3.93    
 ALL FORCE     RESIDUALS ARE ZERO
 LARGEST INCREMENT OF DISP.         2.050E-03   AT NODE        323   DOF  3
 LARGEST CORRECTION TO DISP.        1.735E-18   AT NODE        323   DOF  3
          THE FORCE     EQUILIBRIUM RESPONSE WAS LINEAR IN THIS INCREMENT

 AVERAGE MOMENT                      0.00       TIME AVG. MOMENT       4.11    
                                                (FROM FORCE     FIELD)
 ALL MOMENT    RESIDUALS ARE ZERO
 LARGEST INCREMENT OF ROTATION      3.159E-32   AT NODE        323   DOF  4
 LARGEST CORRECTION TO ROTATION     5.425E-33   AT NODE        323   DOF  4
          THERE IS ZERO MOMENT    EVERYWHERE

 ITERATION SUMMARY FOR THE INCREMENT:   1 TOTAL ITERATIONS, OF WHICH
   0 ARE SEVERE DISCONTINUITY ITERATIONS AND  1 ARE EQUILIBRIUM ITERATIONS.

 TIME INCREMENT COMPLETED  5.000E-02,  FRACTION OF STEP COMPLETED  0.250    
 STEP TIME COMPLETED       0.250    ,  TOTAL TIME COMPLETED        0.250    


  INCREMENT     6 STARTS. ATTEMPT NUMBER  1, TIME INCREMENT  5.000E-02

  NUMBER OF EQUATIONS =      1419     NUMBER OF RHS =    1
  NUMBER OF FLOATING PT. OPERATIONS =  1.06E+07

  USING THE DIRECT SOLVER WITH  42 PROCESSORS

     CHECK POINT   START OF SOLVER    

     CHECK POINT  END OF SOLVER       

       ELAPSED USER TIME (SEC)      =  0.31000    
       ELAPSED SYSTEM TIME (SEC)    =  7.00000E-02
       ELAPSED TOTAL CPU TIME (SEC) =  0.38000    
       ELAPSED WALLCLOCK TIME (SEC) =          0

               CONVERGENCE CHECKS FOR EQUILIBRIUM ITERATION     1


 AVERAGE FORCE                       7.21       TIME AVG. FORCE        4.48    
 ALL FORCE     RESIDUALS ARE ZERO
 LARGEST INCREMENT OF DISP.         2.050E-03   AT NODE        323   DOF  3
 LARGEST CORRECTION TO DISP.       -3.469E-18   AT NODE        323   DOF  3
          THE FORCE     EQUILIBRIUM RESPONSE WAS LINEAR IN THIS INCREMENT

 AVERAGE MOMENT                      0.00       TIME AVG. MOMENT       4.85    
                                                (FROM FORCE     FIELD)
 ALL MOMENT    RESIDUALS ARE ZERO
 LARGEST INCREMENT OF ROTATION      3.733E-32   AT NODE        323   DOF  4
 LARGEST CORRECTION TO ROTATION     5.735E-33   AT NODE        323   DOF  4
          THERE IS ZERO MOMENT    EVERYWHERE

 ITERATION SUMMARY FOR THE INCREMENT:   1 TOTAL ITERATIONS, OF WHICH
   0 ARE SEVERE DISCONTINUITY ITERATIONS AND  1 ARE EQUILIBRIUM ITERATIONS.

 TIME INCREMENT COMPLETED  5.000E-02,  FRACTION OF STEP COMPLETED  0.300    
 STEP TIME COMPLETED       0.300    ,  TOTAL TIME COMPLETED        0.300    


  INCREMENT     7 STARTS. ATTEMPT NUMBER  1, TIME INCREMENT  5.000E-02

  NUMBER OF EQUATIONS =      1419     NUMBER OF RHS =    1
  NUMBER OF FLOATING PT. OPERATIONS =  1.06E+07

  USING THE DIRECT SOLVER WITH  42 PROCESSORS

     CHECK POINT   START OF SOLVER    

     CHECK POINT  END OF SOLVER       

       ELAPSED USER TIME (SEC)      =  0.49000    
       ELAPSED SYSTEM TIME (SEC)    =  8.00000E-02
       ELAPSED TOTAL CPU TIME (SEC) =  0.57000    
       ELAPSED WALLCLOCK TIME (SEC) =          0

               CONVERGENCE CHECKS FOR EQUILIBRIUM ITERATION     1


 AVERAGE FORCE                       8.08       TIME AVG. FORCE        4.99    
 ALL FORCE     RESIDUALS ARE ZERO
 LARGEST INCREMENT OF DISP.         2.050E-03   AT NODE        323   DOF  3
 LARGEST CORRECTION TO DISP.        3.469E-18   AT NODE        323   DOF  3
          THE FORCE     EQUILIBRIUM RESPONSE WAS LINEAR IN THIS INCREMENT

 AVERAGE MOMENT                      0.00       TIME AVG. MOMENT       5.53    
                                                (FROM FORCE     FIELD)
 ALL MOMENT    RESIDUALS ARE ZERO
 LARGEST INCREMENT OF ROTATION      4.278E-32   AT NODE        323   DOF  4
 LARGEST CORRECTION TO ROTATION     5.451E-33   AT NODE        323   DOF  4
          THERE IS ZERO MOMENT    EVERYWHERE

 ITERATION SUMMARY FOR THE INCREMENT:   1 TOTAL ITERATIONS, OF WHICH
   0 ARE SEVERE DISCONTINUITY ITERATIONS AND  1 ARE EQUILIBRIUM ITERATIONS.

 TIME INCREMENT COMPLETED  5.000E-02,  FRACTION OF STEP COMPLETED  0.350    
 STEP TIME COMPLETED       0.350    ,  TOTAL TIME COMPLETED        0.350    


  INCREMENT     8 STARTS. ATTEMPT NUMBER  1, TIME INCREMENT  5.000E-02

  NUMBER OF EQUATIONS =      1419     NUMBER OF RHS =    1
  NUMBER OF FLOATING PT. OPERATIONS =  1.06E+07

  USING THE DIRECT SOLVER WITH  42 PROCESSORS

     CHECK POINT   START OF SOLVER    

     CHECK POINT  END OF SOLVER       

       ELAPSED USER TIME (SEC)      =  0.24000    
       ELAPSED SYSTEM TIME (SEC)    =  0.13000    
       ELAPSED TOTAL CPU TIME (SEC) =  0.37000    
       ELAPSED WALLCLOCK TIME (SEC) =          0

               CONVERGENCE CHECKS FOR EQUILIBRIUM ITERATION     1


 AVERAGE FORCE                       8.95       TIME AVG. FORCE        5.48    
 ALL FORCE     RESIDUALS ARE ZERO
 LARGEST INCREMENT OF DISP.         2.050E-03   AT NODE        323   DOF  3
 LARGEST CORRECTION TO DISP.       -3.469E-18   AT NODE        323   DOF  3
          THE FORCE     EQUILIBRIUM RESPONSE WAS LINEAR IN THIS INCREMENT

 AVERAGE MOMENT                      0.00       TIME AVG. MOMENT       6.16    
                                                (FROM FORCE     FIELD)
 ALL MOMENT    RESIDUALS ARE ZERO
 LARGEST INCREMENT OF ROTATION      4.823E-32   AT NODE        323   DOF  4
 LARGEST CORRECTION TO ROTATION     5.451E-33   AT NODE        323   DOF  4
          THERE IS ZERO MOMENT    EVERYWHERE

 ITERATION SUMMARY FOR THE INCREMENT:   1 TOTAL ITERATIONS, OF WHICH
   0 ARE SEVERE DISCONTINUITY ITERATIONS AND  1 ARE EQUILIBRIUM ITERATIONS.

 TIME INCREMENT COMPLETED  5.000E-02,  FRACTION OF STEP COMPLETED  0.400    
 STEP TIME COMPLETED       0.400    ,  TOTAL TIME COMPLETED        0.400    


  INCREMENT     9 STARTS. ATTEMPT NUMBER  1, TIME INCREMENT  5.000E-02

  NUMBER OF EQUATIONS =      1419     NUMBER OF RHS =    1
  NUMBER OF FLOATING PT. OPERATIONS =  1.06E+07

  USING THE DIRECT SOLVER WITH  42 PROCESSORS

     CHECK POINT   START OF SOLVER    

     CHECK POINT  END OF SOLVER       

       ELAPSED USER TIME (SEC)      =  0.44000    
       ELAPSED SYSTEM TIME (SEC)    =  0.11000    
       ELAPSED TOTAL CPU TIME (SEC) =  0.55000    
       ELAPSED WALLCLOCK TIME (SEC) =          0

               CONVERGENCE CHECKS FOR EQUILIBRIUM ITERATION     1


 AVERAGE FORCE                       9.82       TIME AVG. FORCE        5.97    
 ALL FORCE     RESIDUALS ARE ZERO
 LARGEST INCREMENT OF DISP.         2.050E-03   AT NODE        323   DOF  3
 LARGEST CORRECTION TO DISP.        3.469E-18   AT NODE        323   DOF  3
          THE FORCE     EQUILIBRIUM RESPONSE WAS LINEAR IN THIS INCREMENT

 AVERAGE MOMENT                      0.00       TIME AVG. MOMENT       6.77    
                                                (FROM FORCE     FIELD)
 ALL MOMENT    RESIDUALS ARE ZERO
 LARGEST INCREMENT OF ROTATION      5.370E-32   AT NODE        323   DOF  4
 LARGEST CORRECTION TO ROTATION     5.476E-33   AT NODE        323   DOF  4
          THERE IS ZERO MOMENT    EVERYWHERE

 ITERATION SUMMARY FOR THE INCREMENT:   1 TOTAL ITERATIONS, OF WHICH
   0 ARE SEVERE DISCONTINUITY ITERATIONS AND  1 ARE EQUILIBRIUM ITERATIONS.

 TIME INCREMENT COMPLETED  5.000E-02,  FRACTION OF STEP COMPLETED  0.450    
 STEP TIME COMPLETED       0.450    ,  TOTAL TIME COMPLETED        0.450    


  INCREMENT    10 STARTS. ATTEMPT NUMBER  1, TIME INCREMENT  5.000E-02

  NUMBER OF EQUATIONS =      1419     NUMBER OF RHS =    1
  NUMBER OF FLOATING PT. OPERATIONS =  1.06E+07

  USING THE DIRECT SOLVER WITH  42 PROCESSORS

     CHECK POINT   START OF SOLVER    

     CHECK POINT  END OF SOLVER       

       ELAPSED USER TIME (SEC)      =  0.32000    
       ELAPSED SYSTEM TIME (SEC)    =  7.00000E-02
       ELAPSED TOTAL CPU TIME (SEC) =  0.39000    
       ELAPSED WALLCLOCK TIME (SEC) =          0

               CONVERGENCE CHECKS FOR EQUILIBRIUM ITERATION     1


 AVERAGE FORCE                       10.7       TIME AVG. FORCE        6.44    
 ALL FORCE     RESIDUALS ARE ZERO
 LARGEST INCREMENT OF DISP.         2.050E-03   AT NODE        323   DOF  3
 LARGEST CORRECTION TO DISP.        2.168E-19   AT NODE        323   DOF  1
          THE FORCE     EQUILIBRIUM RESPONSE WAS LINEAR IN THIS INCREMENT

 AVERAGE MOMENT                      0.00       TIME AVG. MOMENT       7.37    
                                                (FROM FORCE     FIELD)
 ALL MOMENT    RESIDUALS ARE ZERO
 LARGEST INCREMENT OF ROTATION      5.915E-32   AT NODE        323   DOF  4
 LARGEST CORRECTION TO ROTATION     5.451E-33   AT NODE        323   DOF  4
          THERE IS ZERO MOMENT    EVERYWHERE

 ITERATION SUMMARY FOR THE INCREMENT:   1 TOTAL ITERATIONS, OF WHICH
   0 ARE SEVERE DISCONTINUITY ITERATIONS AND  1 ARE EQUILIBRIUM ITERATIONS.

 TIME INCREMENT COMPLETED  5.000E-02,  FRACTION OF STEP COMPLETED  0.500    
 STEP TIME COMPLETED       0.500    ,  TOTAL TIME COMPLETED        0.500    


  INCREMENT    11 STARTS. ATTEMPT NUMBER  1, TIME INCREMENT  5.000E-02

  NUMBER OF EQUATIONS =      1419     NUMBER OF RHS =    1
  NUMBER OF FLOATING PT. OPERATIONS =  1.06E+07

  USING THE DIRECT SOLVER WITH  42 PROCESSORS

     CHECK POINT   START OF SOLVER    

     CHECK POINT  END OF SOLVER       

       ELAPSED USER TIME (SEC)      =  0.29000    
       ELAPSED SYSTEM TIME (SEC)    =  7.00000E-02
       ELAPSED TOTAL CPU TIME (SEC) =  0.36000    
       ELAPSED WALLCLOCK TIME (SEC) =          0

               CONVERGENCE CHECKS FOR EQUILIBRIUM ITERATION     1


 AVERAGE FORCE                       11.5       TIME AVG. FORCE        6.90    
 ALL FORCE     RESIDUALS ARE ZERO
 LARGEST INCREMENT OF DISP.         2.050E-03   AT NODE        323   DOF  3
 LARGEST CORRECTION TO DISP.        3.469E-18   AT NODE        323   DOF  3
          THE FORCE     EQUILIBRIUM RESPONSE WAS LINEAR IN THIS INCREMENT

 AVERAGE MOMENT                      0.00       TIME AVG. MOMENT       7.95    
                                                (FROM FORCE     FIELD)
 ALL MOMENT    RESIDUALS ARE ZERO
 LARGEST INCREMENT OF ROTATION      6.431E-32   AT NODE        323   DOF  4
 LARGEST CORRECTION TO ROTATION     5.159E-33   AT NODE        323   DOF  4
          THERE IS ZERO MOMENT    EVERYWHERE

 ITERATION SUMMARY FOR THE INCREMENT:   1 TOTAL ITERATIONS, OF WHICH
   0 ARE SEVERE DISCONTINUITY ITERATIONS AND  1 ARE EQUILIBRIUM ITERATIONS.

 TIME INCREMENT COMPLETED  5.000E-02,  FRACTION OF STEP COMPLETED  0.550    
 STEP TIME COMPLETED       0.550    ,  TOTAL TIME COMPLETED        0.550    


  INCREMENT    12 STARTS. ATTEMPT NUMBER  1, TIME INCREMENT  5.000E-02

  NUMBER OF EQUATIONS =      1419     NUMBER OF RHS =    1
  NUMBER OF FLOATING PT. OPERATIONS =  1.06E+07

  USING THE DIRECT SOLVER WITH  42 PROCESSORS

     CHECK POINT   START OF SOLVER    

     CHECK POINT  END OF SOLVER       

       ELAPSED USER TIME (SEC)      =  0.27000    
       ELAPSED SYSTEM TIME (SEC)    =  7.00000E-02
       ELAPSED TOTAL CPU TIME (SEC) =  0.34000    
       ELAPSED WALLCLOCK TIME (SEC) =          0

               CONVERGENCE CHECKS FOR EQUILIBRIUM ITERATION     1


 AVERAGE FORCE                       12.4       TIME AVG. FORCE        7.36    
 ALL FORCE     RESIDUALS ARE ZERO
 LARGEST INCREMENT OF DISP.         2.050E-03   AT NODE        323   DOF  3
 LARGEST CORRECTION TO DISP.        2.168E-19   AT NODE        323   DOF  2
          THE FORCE     EQUILIBRIUM RESPONSE WAS LINEAR IN THIS INCREMENT

 AVERAGE MOMENT                      0.00       TIME AVG. MOMENT       8.52    
                                                (FROM FORCE     FIELD)
 ALL MOMENT    RESIDUALS ARE ZERO
 LARGEST INCREMENT OF ROTATION      6.949E-32   AT NODE        323   DOF  4
 LARGEST CORRECTION TO ROTATION     5.175E-33   AT NODE        323   DOF  4
          THERE IS ZERO MOMENT    EVERYWHERE

 ITERATION SUMMARY FOR THE INCREMENT:   1 TOTAL ITERATIONS, OF WHICH
   0 ARE SEVERE DISCONTINUITY ITERATIONS AND  1 ARE EQUILIBRIUM ITERATIONS.

 TIME INCREMENT COMPLETED  5.000E-02,  FRACTION OF STEP COMPLETED  0.600    
 STEP TIME COMPLETED       0.600    ,  TOTAL TIME COMPLETED        0.600    


  INCREMENT    13 STARTS. ATTEMPT NUMBER  1, TIME INCREMENT  5.000E-02

  NUMBER OF EQUATIONS =      1419     NUMBER OF RHS =    1
  NUMBER OF FLOATING PT. OPERATIONS =  1.06E+07

  USING THE DIRECT SOLVER WITH  42 PROCESSORS

     CHECK POINT   START OF SOLVER    

     CHECK POINT  END OF SOLVER       

       ELAPSED USER TIME (SEC)      =  0.28000    
       ELAPSED SYSTEM TIME (SEC)    =  7.00000E-02
       ELAPSED TOTAL CPU TIME (SEC) =  0.35000    
       ELAPSED WALLCLOCK TIME (SEC) =          0

               CONVERGENCE CHECKS FOR EQUILIBRIUM ITERATION     1


 AVERAGE FORCE                       13.2       TIME AVG. FORCE        7.81    
 ALL FORCE     RESIDUALS ARE ZERO
 LARGEST INCREMENT OF DISP.         2.050E-03   AT NODE        323   DOF  3
 LARGEST CORRECTION TO DISP.       -2.168E-19   AT NODE        323   DOF  1
          THE FORCE     EQUILIBRIUM RESPONSE WAS LINEAR IN THIS INCREMENT

 AVERAGE MOMENT                      0.00       TIME AVG. MOMENT       9.08    
                                                (FROM FORCE     FIELD)
 ALL MOMENT    RESIDUALS ARE ZERO
 LARGEST INCREMENT OF ROTATION      7.467E-32   AT NODE        323   DOF  4
 LARGEST CORRECTION TO ROTATION     5.180E-33   AT NODE        323   DOF  4
          THERE IS ZERO MOMENT    EVERYWHERE

 ITERATION SUMMARY FOR THE INCREMENT:   1 TOTAL ITERATIONS, OF WHICH
   0 ARE SEVERE DISCONTINUITY ITERATIONS AND  1 ARE EQUILIBRIUM ITERATIONS.

 TIME INCREMENT COMPLETED  5.000E-02,  FRACTION OF STEP COMPLETED  0.650    
 STEP TIME COMPLETED       0.650    ,  TOTAL TIME COMPLETED        0.650    


  INCREMENT    14 STARTS. ATTEMPT NUMBER  1, TIME INCREMENT  5.000E-02

  NUMBER OF EQUATIONS =      1419     NUMBER OF RHS =    1
  NUMBER OF FLOATING PT. OPERATIONS =  1.06E+07

  USING THE DIRECT SOLVER WITH  42 PROCESSORS

     CHECK POINT   START OF SOLVER    

     CHECK POINT  END OF SOLVER       

       ELAPSED USER TIME (SEC)      =  0.69000    
       ELAPSED SYSTEM TIME (SEC)    =  0.10000    
       ELAPSED TOTAL CPU TIME (SEC) =  0.79000    
       ELAPSED WALLCLOCK TIME (SEC) =          0

               CONVERGENCE CHECKS FOR EQUILIBRIUM ITERATION     1


 AVERAGE FORCE                       14.1       TIME AVG. FORCE        8.25    
 ALL FORCE     RESIDUALS ARE ZERO
 LARGEST INCREMENT OF DISP.         2.050E-03   AT NODE        323   DOF  3
 LARGEST CORRECTION TO DISP.       -3.469E-18   AT NODE        323   DOF  3
          THE FORCE     EQUILIBRIUM RESPONSE WAS LINEAR IN THIS INCREMENT

 AVERAGE MOMENT                      0.00       TIME AVG. MOMENT       9.64    
                                                (FROM FORCE     FIELD)
 ALL MOMENT    RESIDUALS ARE ZERO
 LARGEST INCREMENT OF ROTATION      7.970E-32   AT NODE        323   DOF  4
 LARGEST CORRECTION TO ROTATION     5.033E-33   AT NODE        323   DOF  4
          THERE IS ZERO MOMENT    EVERYWHERE

 ITERATION SUMMARY FOR THE INCREMENT:   1 TOTAL ITERATIONS, OF WHICH
   0 ARE SEVERE DISCONTINUITY ITERATIONS AND  1 ARE EQUILIBRIUM ITERATIONS.

 TIME INCREMENT COMPLETED  5.000E-02,  FRACTION OF STEP COMPLETED  0.700    
 STEP TIME COMPLETED       0.700    ,  TOTAL TIME COMPLETED        0.700    


  INCREMENT    15 STARTS. ATTEMPT NUMBER  1, TIME INCREMENT  5.000E-02

  NUMBER OF EQUATIONS =      1419     NUMBER OF RHS =    1
  NUMBER OF FLOATING PT. OPERATIONS =  1.06E+07

  USING THE DIRECT SOLVER WITH  42 PROCESSORS

     CHECK POINT   START OF SOLVER    

     CHECK POINT  END OF SOLVER       

       ELAPSED USER TIME (SEC)      =  0.25000    
       ELAPSED SYSTEM TIME (SEC)    =  0.12000    
       ELAPSED TOTAL CPU TIME (SEC) =  0.37000    
       ELAPSED WALLCLOCK TIME (SEC) =          0

               CONVERGENCE CHECKS FOR EQUILIBRIUM ITERATION     1


 AVERAGE FORCE                       14.9       TIME AVG. FORCE        8.70    
 ALL FORCE     RESIDUALS ARE ZERO
 LARGEST INCREMENT OF DISP.         2.050E-03   AT NODE        323   DOF  3
 LARGEST CORRECTION TO DISP.        3.469E-18   AT NODE        323   DOF  3
          THE FORCE     EQUILIBRIUM RESPONSE WAS LINEAR IN THIS INCREMENT

 AVERAGE MOMENT                      0.00       TIME AVG. MOMENT       10.2    
                                                (FROM FORCE     FIELD)
 ALL MOMENT    RESIDUALS ARE ZERO
 LARGEST INCREMENT OF ROTATION      8.466E-32   AT NODE        323   DOF  4
 LARGEST CORRECTION TO ROTATION     4.962E-33   AT NODE        323   DOF  4
          THERE IS ZERO MOMENT    EVERYWHERE

 ITERATION SUMMARY FOR THE INCREMENT:   1 TOTAL ITERATIONS, OF WHICH
   0 ARE SEVERE DISCONTINUITY ITERATIONS AND  1 ARE EQUILIBRIUM ITERATIONS.

 TIME INCREMENT COMPLETED  5.000E-02,  FRACTION OF STEP COMPLETED  0.750    
 STEP TIME COMPLETED       0.750    ,  TOTAL TIME COMPLETED        0.750    


  INCREMENT    16 STARTS. ATTEMPT NUMBER  1, TIME INCREMENT  5.000E-02

  NUMBER OF EQUATIONS =      1419     NUMBER OF RHS =    1
  NUMBER OF FLOATING PT. OPERATIONS =  1.06E+07

  USING THE DIRECT SOLVER WITH  42 PROCESSORS

     CHECK POINT   START OF SOLVER    

     CHECK POINT  END OF SOLVER       

       ELAPSED USER TIME (SEC)      =  0.23000    
       ELAPSED SYSTEM TIME (SEC)    =  0.12000    
       ELAPSED TOTAL CPU TIME (SEC) =  0.35000    
       ELAPSED WALLCLOCK TIME (SEC) =          0

               CONVERGENCE CHECKS FOR EQUILIBRIUM ITERATION     1


 AVERAGE FORCE                       15.7       TIME AVG. FORCE        9.13    
 ALL FORCE     RESIDUALS ARE ZERO
 LARGEST INCREMENT OF DISP.         2.050E-03   AT NODE        323   DOF  3
 LARGEST CORRECTION TO DISP.       -3.469E-18   AT NODE        323   DOF  3
          THE FORCE     EQUILIBRIUM RESPONSE WAS LINEAR IN THIS INCREMENT

 AVERAGE MOMENT                      0.00       TIME AVG. MOMENT       10.7    
                                                (FROM FORCE     FIELD)
 ALL MOMENT    RESIDUALS ARE ZERO
 LARGEST INCREMENT OF ROTATION      8.965E-32   AT NODE        323   DOF  4
 LARGEST CORRECTION TO ROTATION     4.991E-33   AT NODE        323   DOF  4
          THERE IS ZERO MOMENT    EVERYWHERE

 ITERATION SUMMARY FOR THE INCREMENT:   1 TOTAL ITERATIONS, OF WHICH
   0 ARE SEVERE DISCONTINUITY ITERATIONS AND  1 ARE EQUILIBRIUM ITERATIONS.

 TIME INCREMENT COMPLETED  5.000E-02,  FRACTION OF STEP COMPLETED  0.800    
 STEP TIME COMPLETED       0.800    ,  TOTAL TIME COMPLETED        0.800    


  INCREMENT    17 STARTS. ATTEMPT NUMBER  1, TIME INCREMENT  5.000E-02

  NUMBER OF EQUATIONS =      1419     NUMBER OF RHS =    1
  NUMBER OF FLOATING PT. OPERATIONS =  1.06E+07

  USING THE DIRECT SOLVER WITH  42 PROCESSORS

     CHECK POINT   START OF SOLVER    

     CHECK POINT  END OF SOLVER       

       ELAPSED USER TIME (SEC)      =  0.25000    
       ELAPSED SYSTEM TIME (SEC)    =  0.11000    
       ELAPSED TOTAL CPU TIME (SEC) =  0.36000    
       ELAPSED WALLCLOCK TIME (SEC) =          0

               CONVERGENCE CHECKS FOR EQUILIBRIUM ITERATION     1


 AVERAGE FORCE                       16.5       TIME AVG. FORCE        9.57    
 ALL FORCE     RESIDUALS ARE ZERO
 LARGEST INCREMENT OF DISP.         2.050E-03   AT NODE        323   DOF  3
 LARGEST CORRECTION TO DISP.       -3.469E-18   AT NODE        323   DOF  3
          THE FORCE     EQUILIBRIUM RESPONSE WAS LINEAR IN THIS INCREMENT

 AVERAGE MOMENT                      0.00       TIME AVG. MOMENT       11.3    
                                                (FROM FORCE     FIELD)
 ALL MOMENT    RESIDUALS ARE ZERO
 LARGEST INCREMENT OF ROTATION      9.464E-32   AT NODE        323   DOF  4
 LARGEST CORRECTION TO ROTATION     4.986E-33   AT NODE        323   DOF  4
          THERE IS ZERO MOMENT    EVERYWHERE

 ITERATION SUMMARY FOR THE INCREMENT:   1 TOTAL ITERATIONS, OF WHICH
   0 ARE SEVERE DISCONTINUITY ITERATIONS AND  1 ARE EQUILIBRIUM ITERATIONS.

 TIME INCREMENT COMPLETED  5.000E-02,  FRACTION OF STEP COMPLETED  0.850    
 STEP TIME COMPLETED       0.850    ,  TOTAL TIME COMPLETED        0.850    


  INCREMENT    18 STARTS. ATTEMPT NUMBER  1, TIME INCREMENT  5.000E-02

  NUMBER OF EQUATIONS =      1419     NUMBER OF RHS =    1
  NUMBER OF FLOATING PT. OPERATIONS =  1.06E+07

  USING THE DIRECT SOLVER WITH  42 PROCESSORS

     CHECK POINT   START OF SOLVER    

     CHECK POINT  END OF SOLVER       

       ELAPSED USER TIME (SEC)      =  0.31000    
       ELAPSED SYSTEM TIME (SEC)    =  8.00000E-02
       ELAPSED TOTAL CPU TIME (SEC) =  0.39000    
       ELAPSED WALLCLOCK TIME (SEC) =          0

               CONVERGENCE CHECKS FOR EQUILIBRIUM ITERATION     1


 AVERAGE FORCE                       17.4       TIME AVG. FORCE        10.0    
 ALL FORCE     RESIDUALS ARE ZERO
 LARGEST INCREMENT OF DISP.         2.050E-03   AT NODE        323   DOF  3
 LARGEST CORRECTION TO DISP.        6.939E-18   AT NODE        323   DOF  3
          THE FORCE     EQUILIBRIUM RESPONSE WAS LINEAR IN THIS INCREMENT

 AVERAGE MOMENT                      0.00       TIME AVG. MOMENT       11.8    
                                                (FROM FORCE     FIELD)
 ALL MOMENT    RESIDUALS ARE ZERO
 LARGEST INCREMENT OF ROTATION      9.963E-32   AT NODE        323   DOF  4
 LARGEST CORRECTION TO ROTATION     4.989E-33   AT NODE        323   DOF  4
          THERE IS ZERO MOMENT    EVERYWHERE

 ITERATION SUMMARY FOR THE INCREMENT:   1 TOTAL ITERATIONS, OF WHICH
   0 ARE SEVERE DISCONTINUITY ITERATIONS AND  1 ARE EQUILIBRIUM ITERATIONS.

 TIME INCREMENT COMPLETED  5.000E-02,  FRACTION OF STEP COMPLETED  0.900    
 STEP TIME COMPLETED       0.900    ,  TOTAL TIME COMPLETED        0.900    


  INCREMENT    19 STARTS. ATTEMPT NUMBER  1, TIME INCREMENT  5.000E-02

  NUMBER OF EQUATIONS =      1419     NUMBER OF RHS =    1
  NUMBER OF FLOATING PT. OPERATIONS =  1.06E+07

  USING THE DIRECT SOLVER WITH  42 PROCESSORS

     CHECK POINT   START OF SOLVER    

     CHECK POINT  END OF SOLVER       

       ELAPSED USER TIME (SEC)      =  0.30000    
       ELAPSED SYSTEM TIME (SEC)    =  5.00000E-02
       ELAPSED TOTAL CPU TIME (SEC) =  0.35000    
       ELAPSED WALLCLOCK TIME (SEC) =          0

               CONVERGENCE CHECKS FOR EQUILIBRIUM ITERATION     1


 AVERAGE FORCE                       18.2       TIME AVG. FORCE        10.4    
 ALL FORCE     RESIDUALS ARE ZERO
 LARGEST INCREMENT OF DISP.         2.050E-03   AT NODE        323   DOF  3
 LARGEST CORRECTION TO DISP.        6.939E-18   AT NODE        323   DOF  3
          THE FORCE     EQUILIBRIUM RESPONSE WAS LINEAR IN THIS INCREMENT

 AVERAGE MOMENT                      0.00       TIME AVG. MOMENT       12.3    
                                                (FROM FORCE     FIELD)
 ALL MOMENT    RESIDUALS ARE ZERO
 LARGEST INCREMENT OF ROTATION      1.045E-31   AT NODE        323   DOF  4
 LARGEST CORRECTION TO ROTATION     4.900E-33   AT NODE        323   DOF  4
          THERE IS ZERO MOMENT    EVERYWHERE

 ITERATION SUMMARY FOR THE INCREMENT:   1 TOTAL ITERATIONS, OF WHICH
   0 ARE SEVERE DISCONTINUITY ITERATIONS AND  1 ARE EQUILIBRIUM ITERATIONS.

 TIME INCREMENT COMPLETED  5.000E-02,  FRACTION OF STEP COMPLETED  0.950    
 STEP TIME COMPLETED       0.950    ,  TOTAL TIME COMPLETED        0.950    


  INCREMENT    20 STARTS. ATTEMPT NUMBER  1, TIME INCREMENT  5.000E-02

  NUMBER OF EQUATIONS =      1419     NUMBER OF RHS =    1
  NUMBER OF FLOATING PT. OPERATIONS =  1.06E+07

  USING THE DIRECT SOLVER WITH  42 PROCESSORS

     CHECK POINT   START OF SOLVER    

     CHECK POINT  END OF SOLVER       

       ELAPSED USER TIME (SEC)      =  0.28000    
       ELAPSED SYSTEM TIME (SEC)    =  7.00000E-02
       ELAPSED TOTAL CPU TIME (SEC) =  0.35000    
       ELAPSED WALLCLOCK TIME (SEC) =          0

               CONVERGENCE CHECKS FOR EQUILIBRIUM ITERATION     1


 AVERAGE FORCE                       19.0       TIME AVG. FORCE        10.9    
 ALL FORCE     RESIDUALS ARE ZERO
 LARGEST INCREMENT OF DISP.         2.050E-03   AT NODE        323   DOF  3
 LARGEST CORRECTION TO DISP.       -2.168E-18   AT NODE        323   DOF  3
          THE FORCE     EQUILIBRIUM RESPONSE WAS LINEAR IN THIS INCREMENT

 AVERAGE MOMENT                      0.00       TIME AVG. MOMENT       12.9    
                                                (FROM FORCE     FIELD)
 ALL MOMENT    RESIDUALS ARE ZERO
 LARGEST INCREMENT OF ROTATION      1.094E-31   AT NODE        323   DOF  4
 LARGEST CORRECTION TO ROTATION     4.847E-33   AT NODE        323   DOF  4
          THERE IS ZERO MOMENT    EVERYWHERE

 ITERATION SUMMARY FOR THE INCREMENT:   1 TOTAL ITERATIONS, OF WHICH
   0 ARE SEVERE DISCONTINUITY ITERATIONS AND  1 ARE EQUILIBRIUM ITERATIONS.

 TIME INCREMENT COMPLETED  5.000E-02,  FRACTION OF STEP COMPLETED   1.00    
 STEP TIME COMPLETED        1.00    ,  TOTAL TIME COMPLETED         1.00    
1

   Abaqus 2021                                  Date 04-Mar-2023   Time 12:49:03
   For use by UNIVERSITAET BERN under license from Dassault Systemes or its subsidiary.

                                                                                 
                                                                                 
 STEP    2     INCREMENT     1     STEP TIME    0.00    


                        S T E P       2     S T A T I C   A N A L Y S I S


                                                                                          

     AUTOMATIC TIME CONTROL WITH -
          A SUGGESTED INITIAL TIME INCREMENT OF                5.000E-02
          AND A TOTAL TIME PERIOD OF                            1.00    
          THE MINIMUM TIME INCREMENT ALLOWED IS                5.000E-05
          THE MAXIMUM TIME INCREMENT ALLOWED IS                5.000E-02

     LINEAR EQUATION SOLVER TYPE         DIRECT SPARSE

 CONVERGENCE TOLERANCE PARAMETERS FOR FORCE    
     CRITERION FOR RESIDUAL FORCE     FOR A NONLINEAR PROBLEM          5.000E-03
     CRITERION FOR DISP.    CORRECTION IN A NONLINEAR PROBLEM          1.000E-02
     INIT. VALUE OF TIME AVG. FORCE     IS TIME AVG. FORCE     IN PREVIOUS STEP
     AVERAGE FORCE     IS TIME AVERAGE FORCE    
     ALTERNATE CRIT. FOR RESIDUAL FORCE     FOR A NONLINEAR PROBLEM    2.000E-02
     CRITERION FOR ZERO FORCE     RELATIVE TO TIME AVRG. FORCE         1.000E-05
     CRITERION FOR RESIDUAL FORCE     WHEN THERE IS ZERO FLUX          1.000E-05
     CRITERION FOR DISP.    CORRECTION WHEN THERE IS ZERO FLUX         1.000E-03
     CRITERION FOR RESIDUAL FORCE     FOR A LINEAR INCREMENT           1.000E-08
     FIELD CONVERSION RATIO                                             1.00    
     CRITERION FOR ZERO FORCE     REL. TO TIME AVRG. MAX. FORCE        1.000E-05
     CRITERION FOR ZERO DISP.    RELATIVE TO CHARACTERISTIC LENGTH     1.000E-08

 CONVERGENCE TOLERANCE PARAMETERS FOR MOMENT   
     CRITERION FOR RESIDUAL MOMENT    FOR A NONLINEAR PROBLEM          5.000E-03
     CRITERION FOR ROTATION CORRECTION IN A NONLINEAR PROBLEM          1.000E-02
     INIT. VALUE OF TIME AVG. MOMENT    IS TIME AVG. MOMENT    IN PREVIOUS STEP
     AVERAGE MOMENT    IS TIME AVERAGE MOMENT   
     ALTERNATE CRIT. FOR RESIDUAL MOMENT    FOR A NONLINEAR PROBLEM    2.000E-02
     CRITERION FOR ZERO MOMENT    RELATIVE TO TIME AVRG. MOMENT        1.000E-05
     CRITERION FOR RESIDUAL MOMENT    WHEN THERE IS ZERO FLUX          1.000E-05
     CRITERION FOR ROTATION CORRECTION WHEN THERE IS ZERO FLUX         1.000E-03
     CRITERION FOR RESIDUAL MOMENT    FOR A LINEAR INCREMENT           1.000E-08
     FIELD CONVERSION RATIO                                             1.00    
     CRITERION FOR ZERO MOMENT    REL. TO TIME AVRG. MAX. MOMENT       1.000E-05

     VOLUMETRIC STRAIN COMPATIBILITY TOLERANCE FOR HYBRID SOLIDS       1.000E-05
     AXIAL STRAIN COMPATIBILITY TOLERANCE FOR HYBRID BEAMS             1.000E-05
     TRANS. SHEAR STRAIN COMPATIBILITY TOLERANCE FOR HYBRID BEAMS      1.000E-05
     SOFT CONTACT CONSTRAINT COMPATIBILITY TOLERANCE FOR P>P0          5.000E-03
     SOFT CONTACT CONSTRAINT COMPATIBILITY TOLERANCE FOR P=0.0         0.100    
     CONTACT FORCE ERROR TOLERANCE FOR CONVERT SDI=YES                 1.00    
     DISPLACEMENT COMPATIBILITY TOLERANCE FOR DCOUP ELEMENTS           1.000E-05
     ROTATION COMPATIBILITY TOLERANCE FOR DCOUP ELEMENTS               1.000E-05

 EQUILIBRIUM WILL BE CHECKED FOR SEVERE DISCONTINUITY ITERATIONS

 TIME INCREMENTATION CONTROL PARAMETERS:
     FIRST EQUILIBRIUM ITERATION FOR CONSECUTIVE DIVERGENCE CHECK              4
     EQUILIBRIUM ITERATION AT WHICH LOG. CONVERGENCE RATE CHECK BEGINS         8
     EQUILIBRIUM ITERATION AFTER WHICH ALTERNATE RESIDUAL IS USED              9
     MAXIMUM EQUILIBRIUM ITERATIONS ALLOWED                                   16
     EQUILIBRIUM ITERATION COUNT FOR CUT-BACK IN NEXT INCREMENT               10
     MAXIMUM EQUILIB. ITERS IN TWO INCREMENTS FOR TIME INCREMENT INCREASE      4
     MAXIMUM ITERATIONS FOR SEVERE DISCONTINUITIES                            50
     MAXIMUM ATTEMPTS ALLOWED IN AN INCREMENT                                  5
     MAXIMUM DISCON. ITERS IN TWO INCREMENTS FOR TIME INCREMENT INCREASE      50
     MAXIMUM CONTACT AUGMENTATIONS FOR *SURFACE BEHAVIOR,AUGMENTED LAGRANGE   50
     CUT-BACK FACTOR AFTER DIVERGENCE                                 0.2500    
     CUT-BACK FACTOR FOR TOO SLOW CONVERGENCE                         0.5000    
     CUT-BACK FACTOR AFTER TOO MANY EQUILIBRIUM ITERATIONS            0.7500    
     CUT-BACK FACTOR AFTER TOO MANY SEVERE DISCONTINUITY ITERATIONS   0.2500    
     CUT-BACK FACTOR AFTER PROBLEMS IN ELEMENT ASSEMBLY               0.2500    
     INCREASE FACTOR AFTER TWO INCREMENTS THAT CONVERGE QUICKLY        1.500    
     MAX. TIME INCREMENT INCREASE FACTOR ALLOWED                       1.500    
     MAX. TIME INCREMENT INCREASE FACTOR ALLOWED (DYNAMICS)            1.250    
     MAX. TIME INCREMENT INCREASE FACTOR ALLOWED (DIFFUSION)           2.000    
     MINIMUM TIME INCREMENT RATIO FOR EXTRAPOLATION TO OCCUR          0.1000    
     MAX. RATIO OF TIME INCREMENT TO STABILITY LIMIT                   1.000    
     FRACTION OF STABILITY LIMIT FOR NEW TIME INCREMENT               0.9500    
     TIME INCREMENT INCREASE FACTOR BEFORE A TIME POINT                1.000    
     GLOBAL STABILIZATION CONTROL IS NOT USED

          PRINT OF INCREMENT NUMBER, TIME, ETC., EVERY    1  INCREMENTS

     THE MAXIMUM NUMBER OF INCREMENTS IN THIS STEP IS                    1000

          LARGE DISPLACEMENT THEORY WILL BE USED

          UNSYMMETRIC MATRIX STORAGE AND SOLUTION WILL BE USED

     LINEAR EXTRAPOLATION WILL BE USED

     CHARACTERISTIC ELEMENT LENGTH      1.23    

     DETAILS REGARDING ACTUAL SOLUTION WAVEFRONT REQUESTED

     DETAILED OUTPUT OF DIAGNOSTICS TO DATABASE REQUESTED

     PRINT OF INCREMENT NUMBER, TIME, ETC., TO THE MESSAGE FILE EVERY     1  INCREMENTS

     ELEMENT OPERATIONS WILL BE CARRIED OUT IN PARALLEL USING  42 PROCESSORS

     COLLECTING STEP CONSTRAINT INFORMATION FOR OVERCONSTRAINT CHECKS


  INCREMENT     1 STARTS. ATTEMPT NUMBER  1, TIME INCREMENT  5.000E-02
 
     INITIAL ELEMENT LOAD BALANCE
            PROCESS    1   THREAD     NUMBER OF ELEMENTS
                              1            10
                              2            10
                              3            10
                              4            10
                              5            10
                              6            10
                              7            10
                              8            10
                              9            10
                             10            10
                             11            10
                             12            10
                             13            10
                             14            10
                             15            10
                             16            10
                             17            10
                             18            10
                             19            10
                             20            10
                             21            10
                             22            10
                             23            10
                             24            10
                             25            10
                             26            10
                             27            10
                             28            10
                             29            10
                             30            10
                             31            10
                             32            10
                             33            10
                             34            10
                             35            10
                             36            10
                             37            10
                             38            10
                             39            14
                             40            10
                             41            10
                             42            10

  NUMBER OF EQUATIONS =      1419     NUMBER OF RHS =    1
  NUMBER OF FLOATING PT. OPERATIONS =  1.06E+07

  USING THE DIRECT SOLVER WITH  42 PROCESSORS

     CHECK POINT   START OF SOLVER    

     CHECK POINT  END OF SOLVER       

       ELAPSED USER TIME (SEC)      =  0.25000    
       ELAPSED SYSTEM TIME (SEC)    =  0.16000    
       ELAPSED TOTAL CPU TIME (SEC) =  0.41000    
       ELAPSED WALLCLOCK TIME (SEC) =          0

               CONVERGENCE CHECKS FOR EQUILIBRIUM ITERATION     1


 AVERAGE FORCE                       19.2       TIME AVG. FORCE        19.2    
 ALL FORCE     RESIDUALS ARE ZERO
 LARGEST INCREMENT OF DISP.         5.500E-04   AT NODE        323   DOF  3
 LARGEST CORRECTION TO DISP.        5.500E-04   AT NODE        323   DOF  3
          THE FORCE     EQUILIBRIUM RESPONSE WAS LINEAR IN THIS INCREMENT

 AVERAGE MOMENT                      0.00       TIME AVG. MOMENT       23.7    
                                                (FROM FORCE     FIELD)
 ALL MOMENT    RESIDUALS ARE ZERO
 LARGEST INCREMENT OF ROTATION      1.112E-31   AT NODE        323   DOF  4
 LARGEST CORRECTION TO ROTATION     1.112E-31   AT NODE        323   DOF  4
          THERE IS ZERO MOMENT    EVERYWHERE

 ITERATION SUMMARY FOR THE INCREMENT:   1 TOTAL ITERATIONS, OF WHICH
   0 ARE SEVERE DISCONTINUITY ITERATIONS AND  1 ARE EQUILIBRIUM ITERATIONS.

 TIME INCREMENT COMPLETED  5.000E-02,  FRACTION OF STEP COMPLETED  5.000E-02
 STEP TIME COMPLETED       5.000E-02,  TOTAL TIME COMPLETED         1.05    


  INCREMENT     2 STARTS. ATTEMPT NUMBER  1, TIME INCREMENT  5.000E-02

  NUMBER OF EQUATIONS =      1419     NUMBER OF RHS =    1
  NUMBER OF FLOATING PT. OPERATIONS =  1.06E+07

  USING THE DIRECT SOLVER WITH  42 PROCESSORS

     CHECK POINT   START OF SOLVER    

     CHECK POINT  END OF SOLVER       

       ELAPSED USER TIME (SEC)      =  0.28000    
       ELAPSED SYSTEM TIME (SEC)    =  0.11000    
       ELAPSED TOTAL CPU TIME (SEC) =  0.39000    
       ELAPSED WALLCLOCK TIME (SEC) =          0

               CONVERGENCE CHECKS FOR EQUILIBRIUM ITERATION     1


 AVERAGE FORCE                       19.4       TIME AVG. FORCE        19.3    
 ALL FORCE     RESIDUALS ARE ZERO
 LARGEST INCREMENT OF DISP.         5.500E-04   AT NODE        323   DOF  3
 LARGEST CORRECTION TO DISP.        6.939E-18   AT NODE        323   DOF  3
          THE FORCE     EQUILIBRIUM RESPONSE WAS LINEAR IN THIS INCREMENT

 AVERAGE MOMENT                      0.00       TIME AVG. MOMENT       23.7    
                                                (FROM FORCE     FIELD)
 ALL MOMENT    RESIDUALS ARE ZERO
 LARGEST INCREMENT OF ROTATION      1.119E-31   AT NODE        323   DOF  4
 LARGEST CORRECTION TO ROTATION     7.674E-34   AT NODE        323   DOF  4
          THERE IS ZERO MOMENT    EVERYWHERE

 ITERATION SUMMARY FOR THE INCREMENT:   1 TOTAL ITERATIONS, OF WHICH
   0 ARE SEVERE DISCONTINUITY ITERATIONS AND  1 ARE EQUILIBRIUM ITERATIONS.

 TIME INCREMENT COMPLETED  5.000E-02,  FRACTION OF STEP COMPLETED  0.100    
 STEP TIME COMPLETED       0.100    ,  TOTAL TIME COMPLETED         1.10    


  INCREMENT     3 STARTS. ATTEMPT NUMBER  1, TIME INCREMENT  5.000E-02

  NUMBER OF EQUATIONS =      1419     NUMBER OF RHS =    1
  NUMBER OF FLOATING PT. OPERATIONS =  1.06E+07

  USING THE DIRECT SOLVER WITH  42 PROCESSORS

     CHECK POINT   START OF SOLVER    

     CHECK POINT  END OF SOLVER       

       ELAPSED USER TIME (SEC)      =  0.24000    
       ELAPSED SYSTEM TIME (SEC)    =  0.11000    
       ELAPSED TOTAL CPU TIME (SEC) =  0.35000    
       ELAPSED WALLCLOCK TIME (SEC) =          0

               CONVERGENCE CHECKS FOR EQUILIBRIUM ITERATION     1


 AVERAGE FORCE                       19.7       TIME AVG. FORCE        19.4    
 ALL FORCE     RESIDUALS ARE ZERO
 LARGEST INCREMENT OF DISP.         5.500E-04   AT NODE        323   DOF  3
 LARGEST CORRECTION TO DISP.        4.337E-19   AT NODE        323   DOF  2
          THE FORCE     EQUILIBRIUM RESPONSE WAS LINEAR IN THIS INCREMENT

 AVERAGE MOMENT                      0.00       TIME AVG. MOMENT       23.9    
                                                (FROM FORCE     FIELD)
 ALL MOMENT    RESIDUALS ARE ZERO
 LARGEST INCREMENT OF ROTATION      1.132E-31   AT NODE        323   DOF  4
 LARGEST CORRECTION TO ROTATION     1.275E-33   AT NODE        323   DOF  4
          THERE IS ZERO MOMENT    EVERYWHERE

 ITERATION SUMMARY FOR THE INCREMENT:   1 TOTAL ITERATIONS, OF WHICH
   0 ARE SEVERE DISCONTINUITY ITERATIONS AND  1 ARE EQUILIBRIUM ITERATIONS.

 TIME INCREMENT COMPLETED  5.000E-02,  FRACTION OF STEP COMPLETED  0.150    
 STEP TIME COMPLETED       0.150    ,  TOTAL TIME COMPLETED         1.15    


  INCREMENT     4 STARTS. ATTEMPT NUMBER  1, TIME INCREMENT  5.000E-02

  NUMBER OF EQUATIONS =      1419     NUMBER OF RHS =    1
  NUMBER OF FLOATING PT. OPERATIONS =  1.06E+07

  USING THE DIRECT SOLVER WITH  42 PROCESSORS

     CHECK POINT   START OF SOLVER    

     CHECK POINT  END OF SOLVER       

       ELAPSED USER TIME (SEC)      =  0.29000    
       ELAPSED SYSTEM TIME (SEC)    =  8.00000E-02
       ELAPSED TOTAL CPU TIME (SEC) =  0.37000    
       ELAPSED WALLCLOCK TIME (SEC) =          0

               CONVERGENCE CHECKS FOR EQUILIBRIUM ITERATION     1


 AVERAGE FORCE                       19.9       TIME AVG. FORCE        19.5    
 ALL FORCE     RESIDUALS ARE ZERO
 LARGEST INCREMENT OF DISP.         5.500E-04   AT NODE        323   DOF  3
 LARGEST CORRECTION TO DISP.        8.674E-19   AT NODE        323   DOF  1
          THE FORCE     EQUILIBRIUM RESPONSE WAS LINEAR IN THIS INCREMENT

 AVERAGE MOMENT                      0.00       TIME AVG. MOMENT       24.0    
                                                (FROM FORCE     FIELD)
 ALL MOMENT    RESIDUALS ARE ZERO
 LARGEST INCREMENT OF ROTATION      1.145E-31   AT NODE        323   DOF  4
 LARGEST CORRECTION TO ROTATION     1.277E-33   AT NODE        323   DOF  4
          THERE IS ZERO MOMENT    EVERYWHERE

 ITERATION SUMMARY FOR THE INCREMENT:   1 TOTAL ITERATIONS, OF WHICH
   0 ARE SEVERE DISCONTINUITY ITERATIONS AND  1 ARE EQUILIBRIUM ITERATIONS.

 TIME INCREMENT COMPLETED  5.000E-02,  FRACTION OF STEP COMPLETED  0.200    
 STEP TIME COMPLETED       0.200    ,  TOTAL TIME COMPLETED         1.20    


  INCREMENT     5 STARTS. ATTEMPT NUMBER  1, TIME INCREMENT  5.000E-02

  NUMBER OF EQUATIONS =      1419     NUMBER OF RHS =    1
  NUMBER OF FLOATING PT. OPERATIONS =  1.06E+07

  USING THE DIRECT SOLVER WITH  42 PROCESSORS

     CHECK POINT   START OF SOLVER    

     CHECK POINT  END OF SOLVER       

       ELAPSED USER TIME (SEC)      =  0.25000    
       ELAPSED SYSTEM TIME (SEC)    =  0.11000    
       ELAPSED TOTAL CPU TIME (SEC) =  0.36000    
       ELAPSED WALLCLOCK TIME (SEC) =          0

               CONVERGENCE CHECKS FOR EQUILIBRIUM ITERATION     1


 AVERAGE FORCE                       20.1       TIME AVG. FORCE        19.6    
 ALL FORCE     RESIDUALS ARE ZERO
 LARGEST INCREMENT OF DISP.         5.500E-04   AT NODE        323   DOF  3
 LARGEST CORRECTION TO DISP.       -8.674E-19   AT NODE        323   DOF  1
          THE FORCE     EQUILIBRIUM RESPONSE WAS LINEAR IN THIS INCREMENT

 AVERAGE MOMENT                      0.00       TIME AVG. MOMENT       24.1    
                                                (FROM FORCE     FIELD)
 ALL MOMENT    RESIDUALS ARE ZERO
 LARGEST INCREMENT OF ROTATION      1.158E-31   AT NODE        323   DOF  4
 LARGEST CORRECTION TO ROTATION     1.279E-33   AT NODE        323   DOF  4
          THERE IS ZERO MOMENT    EVERYWHERE

 ITERATION SUMMARY FOR THE INCREMENT:   1 TOTAL ITERATIONS, OF WHICH
   0 ARE SEVERE DISCONTINUITY ITERATIONS AND  1 ARE EQUILIBRIUM ITERATIONS.

 TIME INCREMENT COMPLETED  5.000E-02,  FRACTION OF STEP COMPLETED  0.250    
 STEP TIME COMPLETED       0.250    ,  TOTAL TIME COMPLETED         1.25    


  INCREMENT     6 STARTS. ATTEMPT NUMBER  1, TIME INCREMENT  5.000E-02

  NUMBER OF EQUATIONS =      1419     NUMBER OF RHS =    1
  NUMBER OF FLOATING PT. OPERATIONS =  1.06E+07

  USING THE DIRECT SOLVER WITH  42 PROCESSORS

     CHECK POINT   START OF SOLVER    

     CHECK POINT  END OF SOLVER       

       ELAPSED USER TIME (SEC)      =  0.29000    
       ELAPSED SYSTEM TIME (SEC)    =  6.00000E-02
       ELAPSED TOTAL CPU TIME (SEC) =  0.35000    
       ELAPSED WALLCLOCK TIME (SEC) =          0

               CONVERGENCE CHECKS FOR EQUILIBRIUM ITERATION     1


 AVERAGE FORCE                       20.3       TIME AVG. FORCE        19.8    
 ALL FORCE     RESIDUALS ARE ZERO
 LARGEST INCREMENT OF DISP.         5.500E-04   AT NODE        323   DOF  3
 LARGEST CORRECTION TO DISP.        6.939E-18   AT NODE        323   DOF  3
          THE FORCE     EQUILIBRIUM RESPONSE WAS LINEAR IN THIS INCREMENT

 AVERAGE MOMENT                      0.00       TIME AVG. MOMENT       24.3    
                                                (FROM FORCE     FIELD)
 ALL MOMENT    RESIDUALS ARE ZERO
 LARGEST INCREMENT OF ROTATION      1.170E-31   AT NODE        323   DOF  4
 LARGEST CORRECTION TO ROTATION     1.281E-33   AT NODE        323   DOF  4
          THERE IS ZERO MOMENT    EVERYWHERE

 ITERATION SUMMARY FOR THE INCREMENT:   1 TOTAL ITERATIONS, OF WHICH
   0 ARE SEVERE DISCONTINUITY ITERATIONS AND  1 ARE EQUILIBRIUM ITERATIONS.

 TIME INCREMENT COMPLETED  5.000E-02,  FRACTION OF STEP COMPLETED  0.300    
 STEP TIME COMPLETED       0.300    ,  TOTAL TIME COMPLETED         1.30    


  INCREMENT     7 STARTS. ATTEMPT NUMBER  1, TIME INCREMENT  5.000E-02

  NUMBER OF EQUATIONS =      1419     NUMBER OF RHS =    1
  NUMBER OF FLOATING PT. OPERATIONS =  1.06E+07

  USING THE DIRECT SOLVER WITH  42 PROCESSORS

     CHECK POINT   START OF SOLVER    

     CHECK POINT  END OF SOLVER       

       ELAPSED USER TIME (SEC)      =  0.27000    
       ELAPSED SYSTEM TIME (SEC)    =  8.00000E-02
       ELAPSED TOTAL CPU TIME (SEC) =  0.35000    
       ELAPSED WALLCLOCK TIME (SEC) =          0

               CONVERGENCE CHECKS FOR EQUILIBRIUM ITERATION     1


 AVERAGE FORCE                       20.5       TIME AVG. FORCE        19.9    
 ALL FORCE     RESIDUALS ARE ZERO
 LARGEST INCREMENT OF DISP.         5.500E-04   AT NODE        323   DOF  3
 LARGEST CORRECTION TO DISP.       -4.337E-19   AT NODE        323   DOF  1
          THE FORCE     EQUILIBRIUM RESPONSE WAS LINEAR IN THIS INCREMENT

 AVERAGE MOMENT                      0.00       TIME AVG. MOMENT       24.4    
                                                (FROM FORCE     FIELD)
 ALL MOMENT    RESIDUALS ARE ZERO
 LARGEST INCREMENT OF ROTATION      1.183E-31   AT NODE        323   DOF  4
 LARGEST CORRECTION TO ROTATION     1.282E-33   AT NODE        323   DOF  4
          THERE IS ZERO MOMENT    EVERYWHERE

 ITERATION SUMMARY FOR THE INCREMENT:   1 TOTAL ITERATIONS, OF WHICH
   0 ARE SEVERE DISCONTINUITY ITERATIONS AND  1 ARE EQUILIBRIUM ITERATIONS.

 TIME INCREMENT COMPLETED  5.000E-02,  FRACTION OF STEP COMPLETED  0.350    
 STEP TIME COMPLETED       0.350    ,  TOTAL TIME COMPLETED         1.35    


  INCREMENT     8 STARTS. ATTEMPT NUMBER  1, TIME INCREMENT  5.000E-02

  NUMBER OF EQUATIONS =      1419     NUMBER OF RHS =    1
  NUMBER OF FLOATING PT. OPERATIONS =  1.06E+07

  USING THE DIRECT SOLVER WITH  42 PROCESSORS

     CHECK POINT   START OF SOLVER    

     CHECK POINT  END OF SOLVER       

       ELAPSED USER TIME (SEC)      =  0.26000    
       ELAPSED SYSTEM TIME (SEC)    =  9.00000E-02
       ELAPSED TOTAL CPU TIME (SEC) =  0.35000    
       ELAPSED WALLCLOCK TIME (SEC) =          0

               CONVERGENCE CHECKS FOR EQUILIBRIUM ITERATION     1


 AVERAGE FORCE                       20.7       TIME AVG. FORCE        20.0    
 ALL FORCE     RESIDUALS ARE ZERO
 LARGEST INCREMENT OF DISP.         5.500E-04   AT NODE        323   DOF  3
 LARGEST CORRECTION TO DISP.       -6.939E-18   AT NODE        323   DOF  3
          THE FORCE     EQUILIBRIUM RESPONSE WAS LINEAR IN THIS INCREMENT

 AVERAGE MOMENT                      0.00       TIME AVG. MOMENT       24.5    
                                                (FROM FORCE     FIELD)
 ALL MOMENT    RESIDUALS ARE ZERO
 LARGEST INCREMENT OF ROTATION      1.196E-31   AT NODE        323   DOF  4
 LARGEST CORRECTION TO ROTATION     1.284E-33   AT NODE        323   DOF  4
          THERE IS ZERO MOMENT    EVERYWHERE

 ITERATION SUMMARY FOR THE INCREMENT:   1 TOTAL ITERATIONS, OF WHICH
   0 ARE SEVERE DISCONTINUITY ITERATIONS AND  1 ARE EQUILIBRIUM ITERATIONS.

 TIME INCREMENT COMPLETED  5.000E-02,  FRACTION OF STEP COMPLETED  0.400    
 STEP TIME COMPLETED       0.400    ,  TOTAL TIME COMPLETED         1.40    


  INCREMENT     9 STARTS. ATTEMPT NUMBER  1, TIME INCREMENT  5.000E-02

  NUMBER OF EQUATIONS =      1419     NUMBER OF RHS =    1
  NUMBER OF FLOATING PT. OPERATIONS =  1.06E+07

  USING THE DIRECT SOLVER WITH  42 PROCESSORS

     CHECK POINT   START OF SOLVER    

     CHECK POINT  END OF SOLVER       

       ELAPSED USER TIME (SEC)      =  0.24000    
       ELAPSED SYSTEM TIME (SEC)    =  6.00000E-02
       ELAPSED TOTAL CPU TIME (SEC) =  0.30000    
       ELAPSED WALLCLOCK TIME (SEC) =          0

               CONVERGENCE CHECKS FOR EQUILIBRIUM ITERATION     1


 AVERAGE FORCE                       21.0       TIME AVG. FORCE        20.1    
 ALL FORCE     RESIDUALS ARE ZERO
 LARGEST INCREMENT OF DISP.         5.500E-04   AT NODE        323   DOF  3
 LARGEST CORRECTION TO DISP.        6.939E-18   AT NODE        323   DOF  3
          THE FORCE     EQUILIBRIUM RESPONSE WAS LINEAR IN THIS INCREMENT

 AVERAGE MOMENT                      0.00       TIME AVG. MOMENT       24.7    
                                                (FROM FORCE     FIELD)
 ALL MOMENT    RESIDUALS ARE ZERO
 LARGEST INCREMENT OF ROTATION      1.209E-31   AT NODE        323   DOF  4
 LARGEST CORRECTION TO ROTATION     1.285E-33   AT NODE        323   DOF  4
          THERE IS ZERO MOMENT    EVERYWHERE

 ITERATION SUMMARY FOR THE INCREMENT:   1 TOTAL ITERATIONS, OF WHICH
   0 ARE SEVERE DISCONTINUITY ITERATIONS AND  1 ARE EQUILIBRIUM ITERATIONS.

 TIME INCREMENT COMPLETED  5.000E-02,  FRACTION OF STEP COMPLETED  0.450    
 STEP TIME COMPLETED       0.450    ,  TOTAL TIME COMPLETED         1.45    


  INCREMENT    10 STARTS. ATTEMPT NUMBER  1, TIME INCREMENT  5.000E-02

  NUMBER OF EQUATIONS =      1419     NUMBER OF RHS =    1
  NUMBER OF FLOATING PT. OPERATIONS =  1.06E+07

  USING THE DIRECT SOLVER WITH  42 PROCESSORS

     CHECK POINT   START OF SOLVER    

     CHECK POINT  END OF SOLVER       

       ELAPSED USER TIME (SEC)      =  0.31000    
       ELAPSED SYSTEM TIME (SEC)    =  3.00000E-02
       ELAPSED TOTAL CPU TIME (SEC) =  0.34000    
       ELAPSED WALLCLOCK TIME (SEC) =          0

               CONVERGENCE CHECKS FOR EQUILIBRIUM ITERATION     1


 AVERAGE FORCE                       21.2       TIME AVG. FORCE        20.2    
 ALL FORCE     RESIDUALS ARE ZERO
 LARGEST INCREMENT OF DISP.         5.500E-04   AT NODE        323   DOF  3
 LARGEST CORRECTION TO DISP.       -6.939E-18   AT NODE        323   DOF  3
          THE FORCE     EQUILIBRIUM RESPONSE WAS LINEAR IN THIS INCREMENT

 AVERAGE MOMENT                      0.00       TIME AVG. MOMENT       24.8    
                                                (FROM FORCE     FIELD)
 ALL MOMENT    RESIDUALS ARE ZERO
 LARGEST INCREMENT OF ROTATION      1.222E-31   AT NODE        323   DOF  4
 LARGEST CORRECTION TO ROTATION     1.286E-33   AT NODE        323   DOF  4
          THERE IS ZERO MOMENT    EVERYWHERE

 ITERATION SUMMARY FOR THE INCREMENT:   1 TOTAL ITERATIONS, OF WHICH
   0 ARE SEVERE DISCONTINUITY ITERATIONS AND  1 ARE EQUILIBRIUM ITERATIONS.

 TIME INCREMENT COMPLETED  5.000E-02,  FRACTION OF STEP COMPLETED  0.500    
 STEP TIME COMPLETED       0.500    ,  TOTAL TIME COMPLETED         1.50    


  INCREMENT    11 STARTS. ATTEMPT NUMBER  1, TIME INCREMENT  5.000E-02

  NUMBER OF EQUATIONS =      1419     NUMBER OF RHS =    1
  NUMBER OF FLOATING PT. OPERATIONS =  1.06E+07

  USING THE DIRECT SOLVER WITH  42 PROCESSORS

     CHECK POINT   START OF SOLVER    

     CHECK POINT  END OF SOLVER       

       ELAPSED USER TIME (SEC)      =  0.25000    
       ELAPSED SYSTEM TIME (SEC)    =  6.00000E-02
       ELAPSED TOTAL CPU TIME (SEC) =  0.31000    
       ELAPSED WALLCLOCK TIME (SEC) =          0

               CONVERGENCE CHECKS FOR EQUILIBRIUM ITERATION     1


 AVERAGE FORCE                       21.4       TIME AVG. FORCE        20.3    
 ALL FORCE     RESIDUALS ARE ZERO
 LARGEST INCREMENT OF DISP.         5.500E-04   AT NODE        323   DOF  3
 LARGEST CORRECTION TO DISP.        6.939E-18   AT NODE        323   DOF  3
          THE FORCE     EQUILIBRIUM RESPONSE WAS LINEAR IN THIS INCREMENT

 AVERAGE MOMENT                      0.00       TIME AVG. MOMENT       24.9    
                                                (FROM FORCE     FIELD)
 ALL MOMENT    RESIDUALS ARE ZERO
 LARGEST INCREMENT OF ROTATION      1.235E-31   AT NODE        323   DOF  4
 LARGEST CORRECTION TO ROTATION     1.287E-33   AT NODE        323   DOF  4
          THERE IS ZERO MOMENT    EVERYWHERE

 ITERATION SUMMARY FOR THE INCREMENT:   1 TOTAL ITERATIONS, OF WHICH
   0 ARE SEVERE DISCONTINUITY ITERATIONS AND  1 ARE EQUILIBRIUM ITERATIONS.

 TIME INCREMENT COMPLETED  5.000E-02,  FRACTION OF STEP COMPLETED  0.550    
 STEP TIME COMPLETED       0.550    ,  TOTAL TIME COMPLETED         1.55    


  INCREMENT    12 STARTS. ATTEMPT NUMBER  1, TIME INCREMENT  5.000E-02

  NUMBER OF EQUATIONS =      1419     NUMBER OF RHS =    1
  NUMBER OF FLOATING PT. OPERATIONS =  1.06E+07

  USING THE DIRECT SOLVER WITH  42 PROCESSORS

     CHECK POINT   START OF SOLVER    

     CHECK POINT  END OF SOLVER       

       ELAPSED USER TIME (SEC)      =  0.26000    
       ELAPSED SYSTEM TIME (SEC)    =  5.00000E-02
       ELAPSED TOTAL CPU TIME (SEC) =  0.31000    
       ELAPSED WALLCLOCK TIME (SEC) =          0

               CONVERGENCE CHECKS FOR EQUILIBRIUM ITERATION     1


 AVERAGE FORCE                       21.6       TIME AVG. FORCE        20.4    
 ALL FORCE     RESIDUALS ARE ZERO
 LARGEST INCREMENT OF DISP.         5.500E-04   AT NODE        323   DOF  3
 LARGEST CORRECTION TO DISP.        8.674E-19   AT NODE        323   DOF  1
          THE FORCE     EQUILIBRIUM RESPONSE WAS LINEAR IN THIS INCREMENT

 AVERAGE MOMENT                      0.00       TIME AVG. MOMENT       25.1    
                                                (FROM FORCE     FIELD)
 ALL MOMENT    RESIDUALS ARE ZERO
 LARGEST INCREMENT OF ROTATION      1.247E-31   AT NODE        323   DOF  4
 LARGEST CORRECTION TO ROTATION     1.288E-33   AT NODE        323   DOF  4
          THERE IS ZERO MOMENT    EVERYWHERE

 ITERATION SUMMARY FOR THE INCREMENT:   1 TOTAL ITERATIONS, OF WHICH
   0 ARE SEVERE DISCONTINUITY ITERATIONS AND  1 ARE EQUILIBRIUM ITERATIONS.

 TIME INCREMENT COMPLETED  5.000E-02,  FRACTION OF STEP COMPLETED  0.600    
 STEP TIME COMPLETED       0.600    ,  TOTAL TIME COMPLETED         1.60    


  INCREMENT    13 STARTS. ATTEMPT NUMBER  1, TIME INCREMENT  5.000E-02

  NUMBER OF EQUATIONS =      1419     NUMBER OF RHS =    1
  NUMBER OF FLOATING PT. OPERATIONS =  1.06E+07

  USING THE DIRECT SOLVER WITH  42 PROCESSORS

     CHECK POINT   START OF SOLVER    

     CHECK POINT  END OF SOLVER       

       ELAPSED USER TIME (SEC)      =  0.32000    
       ELAPSED SYSTEM TIME (SEC)    =  7.00000E-02
       ELAPSED TOTAL CPU TIME (SEC) =  0.39000    
       ELAPSED WALLCLOCK TIME (SEC) =          0

               CONVERGENCE CHECKS FOR EQUILIBRIUM ITERATION     1


 AVERAGE FORCE                       21.8       TIME AVG. FORCE        20.5    
 ALL FORCE     RESIDUALS ARE ZERO
 LARGEST INCREMENT OF DISP.         5.500E-04   AT NODE        323   DOF  3
 LARGEST CORRECTION TO DISP.        6.939E-18   AT NODE        323   DOF  3
          THE FORCE     EQUILIBRIUM RESPONSE WAS LINEAR IN THIS INCREMENT

 AVERAGE MOMENT                      0.00       TIME AVG. MOMENT       25.2    
                                                (FROM FORCE     FIELD)
 ALL MOMENT    RESIDUALS ARE ZERO
 LARGEST INCREMENT OF ROTATION      1.260E-31   AT NODE        323   DOF  4
 LARGEST CORRECTION TO ROTATION     1.292E-33   AT NODE        323   DOF  4
          THERE IS ZERO MOMENT    EVERYWHERE

 ITERATION SUMMARY FOR THE INCREMENT:   1 TOTAL ITERATIONS, OF WHICH
   0 ARE SEVERE DISCONTINUITY ITERATIONS AND  1 ARE EQUILIBRIUM ITERATIONS.

 TIME INCREMENT COMPLETED  5.000E-02,  FRACTION OF STEP COMPLETED  0.650    
 STEP TIME COMPLETED       0.650    ,  TOTAL TIME COMPLETED         1.65    


  INCREMENT    14 STARTS. ATTEMPT NUMBER  1, TIME INCREMENT  5.000E-02

  NUMBER OF EQUATIONS =      1419     NUMBER OF RHS =    1
  NUMBER OF FLOATING PT. OPERATIONS =  1.06E+07

  USING THE DIRECT SOLVER WITH  42 PROCESSORS

     CHECK POINT   START OF SOLVER    

     CHECK POINT  END OF SOLVER       

       ELAPSED USER TIME (SEC)      =  0.34000    
       ELAPSED SYSTEM TIME (SEC)    =  7.00000E-02
       ELAPSED TOTAL CPU TIME (SEC) =  0.41000    
       ELAPSED WALLCLOCK TIME (SEC) =          0

               CONVERGENCE CHECKS FOR EQUILIBRIUM ITERATION     1


 AVERAGE FORCE                       22.1       TIME AVG. FORCE        20.6    
 ALL FORCE     RESIDUALS ARE ZERO
 LARGEST INCREMENT OF DISP.         5.500E-04   AT NODE        323   DOF  3
 LARGEST CORRECTION TO DISP.       -6.939E-18   AT NODE        323   DOF  3
          THE FORCE     EQUILIBRIUM RESPONSE WAS LINEAR IN THIS INCREMENT

 AVERAGE MOMENT                      0.00       TIME AVG. MOMENT       25.3    
                                                (FROM FORCE     FIELD)
 ALL MOMENT    RESIDUALS ARE ZERO
 LARGEST INCREMENT OF ROTATION      1.273E-31   AT NODE        323   DOF  4
 LARGEST CORRECTION TO ROTATION     1.302E-33   AT NODE        323   DOF  4
          THERE IS ZERO MOMENT    EVERYWHERE

 ITERATION SUMMARY FOR THE INCREMENT:   1 TOTAL ITERATIONS, OF WHICH
   0 ARE SEVERE DISCONTINUITY ITERATIONS AND  1 ARE EQUILIBRIUM ITERATIONS.

 TIME INCREMENT COMPLETED  5.000E-02,  FRACTION OF STEP COMPLETED  0.700    
 STEP TIME COMPLETED       0.700    ,  TOTAL TIME COMPLETED         1.70    


  INCREMENT    15 STARTS. ATTEMPT NUMBER  1, TIME INCREMENT  5.000E-02

  NUMBER OF EQUATIONS =      1419     NUMBER OF RHS =    1
  NUMBER OF FLOATING PT. OPERATIONS =  1.06E+07

  USING THE DIRECT SOLVER WITH  42 PROCESSORS

     CHECK POINT   START OF SOLVER    

     CHECK POINT  END OF SOLVER       

       ELAPSED USER TIME (SEC)      =  0.32000    
       ELAPSED SYSTEM TIME (SEC)    =  6.00000E-02
       ELAPSED TOTAL CPU TIME (SEC) =  0.38000    
       ELAPSED WALLCLOCK TIME (SEC) =          0

               CONVERGENCE CHECKS FOR EQUILIBRIUM ITERATION     1


 AVERAGE FORCE                       22.3       TIME AVG. FORCE        20.7    
 ALL FORCE     RESIDUALS ARE ZERO
 LARGEST INCREMENT OF DISP.         5.500E-04   AT NODE        323   DOF  3
 LARGEST CORRECTION TO DISP.       -6.749E-32   AT NODE        323   DOF  3
          THE FORCE     EQUILIBRIUM RESPONSE WAS LINEAR IN THIS INCREMENT

 AVERAGE MOMENT                      0.00       TIME AVG. MOMENT       25.5    
                                                (FROM FORCE     FIELD)
 ALL MOMENT    RESIDUALS ARE ZERO
 LARGEST INCREMENT OF ROTATION      1.286E-31   AT NODE        323   DOF  4
 LARGEST CORRECTION TO ROTATION     1.304E-33   AT NODE        323   DOF  4
          THERE IS ZERO MOMENT    EVERYWHERE

 ITERATION SUMMARY FOR THE INCREMENT:   1 TOTAL ITERATIONS, OF WHICH
   0 ARE SEVERE DISCONTINUITY ITERATIONS AND  1 ARE EQUILIBRIUM ITERATIONS.

 TIME INCREMENT COMPLETED  5.000E-02,  FRACTION OF STEP COMPLETED  0.750    
 STEP TIME COMPLETED       0.750    ,  TOTAL TIME COMPLETED         1.75    


  INCREMENT    16 STARTS. ATTEMPT NUMBER  1, TIME INCREMENT  5.000E-02

  NUMBER OF EQUATIONS =      1419     NUMBER OF RHS =    1
  NUMBER OF FLOATING PT. OPERATIONS =  1.06E+07

  USING THE DIRECT SOLVER WITH  42 PROCESSORS

     CHECK POINT   START OF SOLVER    

     CHECK POINT  END OF SOLVER       

       ELAPSED USER TIME (SEC)      =  0.29000    
       ELAPSED SYSTEM TIME (SEC)    =  7.00000E-02
       ELAPSED TOTAL CPU TIME (SEC) =  0.36000    
       ELAPSED WALLCLOCK TIME (SEC) =          0

               CONVERGENCE CHECKS FOR EQUILIBRIUM ITERATION     1


 AVERAGE FORCE                       22.5       TIME AVG. FORCE        20.9    
 ALL FORCE     RESIDUALS ARE ZERO
 LARGEST INCREMENT OF DISP.         5.500E-04   AT NODE        323   DOF  3
 LARGEST CORRECTION TO DISP.       -8.674E-19   AT NODE        323   DOF  1
          THE FORCE     EQUILIBRIUM RESPONSE WAS LINEAR IN THIS INCREMENT

 AVERAGE MOMENT                      0.00       TIME AVG. MOMENT       25.6    
                                                (FROM FORCE     FIELD)
 ALL MOMENT    RESIDUALS ARE ZERO
 LARGEST INCREMENT OF ROTATION      1.300E-31   AT NODE        323   DOF  4
 LARGEST CORRECTION TO ROTATION     1.305E-33   AT NODE        323   DOF  4
          THERE IS ZERO MOMENT    EVERYWHERE

 ITERATION SUMMARY FOR THE INCREMENT:   1 TOTAL ITERATIONS, OF WHICH
   0 ARE SEVERE DISCONTINUITY ITERATIONS AND  1 ARE EQUILIBRIUM ITERATIONS.

 TIME INCREMENT COMPLETED  5.000E-02,  FRACTION OF STEP COMPLETED  0.800    
 STEP TIME COMPLETED       0.800    ,  TOTAL TIME COMPLETED         1.80    


  INCREMENT    17 STARTS. ATTEMPT NUMBER  1, TIME INCREMENT  5.000E-02

  NUMBER OF EQUATIONS =      1419     NUMBER OF RHS =    1
  NUMBER OF FLOATING PT. OPERATIONS =  1.06E+07

  USING THE DIRECT SOLVER WITH  42 PROCESSORS

     CHECK POINT   START OF SOLVER    

     CHECK POINT  END OF SOLVER       

       ELAPSED USER TIME (SEC)      =  0.24000    
       ELAPSED SYSTEM TIME (SEC)    =  0.10000    
       ELAPSED TOTAL CPU TIME (SEC) =  0.34000    
       ELAPSED WALLCLOCK TIME (SEC) =          0

               CONVERGENCE CHECKS FOR EQUILIBRIUM ITERATION     1


 AVERAGE FORCE                       22.7       TIME AVG. FORCE        21.0    
 ALL FORCE     RESIDUALS ARE ZERO
 LARGEST INCREMENT OF DISP.         5.500E-04   AT NODE        323   DOF  3
 LARGEST CORRECTION TO DISP.       -6.939E-18   AT NODE        323   DOF  3
          THE FORCE     EQUILIBRIUM RESPONSE WAS LINEAR IN THIS INCREMENT

 AVERAGE MOMENT                      0.00       TIME AVG. MOMENT       25.7    
                                                (FROM FORCE     FIELD)
 ALL MOMENT    RESIDUALS ARE ZERO
 LARGEST INCREMENT OF ROTATION      1.313E-31   AT NODE        323   DOF  4
 LARGEST CORRECTION TO ROTATION     1.307E-33   AT NODE        323   DOF  4
          THERE IS ZERO MOMENT    EVERYWHERE

 ITERATION SUMMARY FOR THE INCREMENT:   1 TOTAL ITERATIONS, OF WHICH
   0 ARE SEVERE DISCONTINUITY ITERATIONS AND  1 ARE EQUILIBRIUM ITERATIONS.

 TIME INCREMENT COMPLETED  5.000E-02,  FRACTION OF STEP COMPLETED  0.850    
 STEP TIME COMPLETED       0.850    ,  TOTAL TIME COMPLETED         1.85    


  INCREMENT    18 STARTS. ATTEMPT NUMBER  1, TIME INCREMENT  5.000E-02

  NUMBER OF EQUATIONS =      1419     NUMBER OF RHS =    1
  NUMBER OF FLOATING PT. OPERATIONS =  1.06E+07

  USING THE DIRECT SOLVER WITH  42 PROCESSORS

     CHECK POINT   START OF SOLVER    

     CHECK POINT  END OF SOLVER       

       ELAPSED USER TIME (SEC)      =  0.28000    
       ELAPSED SYSTEM TIME (SEC)    =  9.00000E-02
       ELAPSED TOTAL CPU TIME (SEC) =  0.37000    
       ELAPSED WALLCLOCK TIME (SEC) =          0

               CONVERGENCE CHECKS FOR EQUILIBRIUM ITERATION     1


 AVERAGE FORCE                       22.9       TIME AVG. FORCE        21.1    
 ALL FORCE     RESIDUALS ARE ZERO
 LARGEST INCREMENT OF DISP.         5.500E-04   AT NODE        323   DOF  3
 LARGEST CORRECTION TO DISP.        1.388E-17   AT NODE        323   DOF  3
          THE FORCE     EQUILIBRIUM RESPONSE WAS LINEAR IN THIS INCREMENT

 AVERAGE MOMENT                      0.00       TIME AVG. MOMENT       25.9    
                                                (FROM FORCE     FIELD)
 ALL MOMENT    RESIDUALS ARE ZERO
 LARGEST INCREMENT OF ROTATION      1.326E-31   AT NODE        323   DOF  4
 LARGEST CORRECTION TO ROTATION     1.309E-33   AT NODE        323   DOF  4
          THERE IS ZERO MOMENT    EVERYWHERE

 ITERATION SUMMARY FOR THE INCREMENT:   1 TOTAL ITERATIONS, OF WHICH
   0 ARE SEVERE DISCONTINUITY ITERATIONS AND  1 ARE EQUILIBRIUM ITERATIONS.

 TIME INCREMENT COMPLETED  5.000E-02,  FRACTION OF STEP COMPLETED  0.900    
 STEP TIME COMPLETED       0.900    ,  TOTAL TIME COMPLETED         1.90    


  INCREMENT    19 STARTS. ATTEMPT NUMBER  1, TIME INCREMENT  5.000E-02

  NUMBER OF EQUATIONS =      1419     NUMBER OF RHS =    1
  NUMBER OF FLOATING PT. OPERATIONS =  1.06E+07

  USING THE DIRECT SOLVER WITH  42 PROCESSORS

     CHECK POINT   START OF SOLVER    

     CHECK POINT  END OF SOLVER       

       ELAPSED USER TIME (SEC)      =  0.27000    
       ELAPSED SYSTEM TIME (SEC)    =  6.00000E-02
       ELAPSED TOTAL CPU TIME (SEC) =  0.33000    
       ELAPSED WALLCLOCK TIME (SEC) =          0

               CONVERGENCE CHECKS FOR EQUILIBRIUM ITERATION     1


 AVERAGE FORCE                       23.2       TIME AVG. FORCE        21.2    
 ALL FORCE     RESIDUALS ARE ZERO
 LARGEST INCREMENT OF DISP.         5.500E-04   AT NODE        323   DOF  3
 LARGEST CORRECTION TO DISP.       -2.711E-20   AT NODE        323   DOF  2
          THE FORCE     EQUILIBRIUM RESPONSE WAS LINEAR IN THIS INCREMENT

 AVERAGE MOMENT                      0.00       TIME AVG. MOMENT       26.0    
                                                (FROM FORCE     FIELD)
 ALL MOMENT    RESIDUALS ARE ZERO
 LARGEST INCREMENT OF ROTATION      1.339E-31   AT NODE        323   DOF  4
 LARGEST CORRECTION TO ROTATION     1.297E-33   AT NODE        323   DOF  4
          THERE IS ZERO MOMENT    EVERYWHERE

 ITERATION SUMMARY FOR THE INCREMENT:   1 TOTAL ITERATIONS, OF WHICH
   0 ARE SEVERE DISCONTINUITY ITERATIONS AND  1 ARE EQUILIBRIUM ITERATIONS.

 TIME INCREMENT COMPLETED  5.000E-02,  FRACTION OF STEP COMPLETED  0.950    
 STEP TIME COMPLETED       0.950    ,  TOTAL TIME COMPLETED         1.95    


  INCREMENT    20 STARTS. ATTEMPT NUMBER  1, TIME INCREMENT  5.000E-02

  NUMBER OF EQUATIONS =      1419     NUMBER OF RHS =    1
  NUMBER OF FLOATING PT. OPERATIONS =  1.06E+07

  USING THE DIRECT SOLVER WITH  42 PROCESSORS

     CHECK POINT   START OF SOLVER    

     CHECK POINT  END OF SOLVER       

       ELAPSED USER TIME (SEC)      =  0.26000    
       ELAPSED SYSTEM TIME (SEC)    =  0.11000    
       ELAPSED TOTAL CPU TIME (SEC) =  0.37000    
       ELAPSED WALLCLOCK TIME (SEC) =          0

               CONVERGENCE CHECKS FOR EQUILIBRIUM ITERATION     1


 AVERAGE FORCE                       23.4       TIME AVG. FORCE        21.3    
 ALL FORCE     RESIDUALS ARE ZERO
 LARGEST INCREMENT OF DISP.         5.500E-04   AT NODE        323   DOF  3
[...]
   ELEMENT 325 IS DISTORTING EXCESSIVELY.
   ELEMENT 325 IS DISTORTING EXCESSIVELY.
   ELEMENT 325 IS DISTORTING EXCESSIVELY.
   ELEMENT 325 IS DISTORTING EXCESSIVELY.
   ELEMENT 326 IS DISTORTING EXCESSIVELY.
   ELEMENT 326 IS DISTORTING EXCESSIVELY.
   ELEMENT 326 IS DISTORTING EXCESSIVELY.
   ELEMENT 326 IS DISTORTING EXCESSIVELY.
   ELEMENT 326 IS DISTORTING EXCESSIVELY.
   ELEMENT 326 IS DISTORTING EXCESSIVELY.
   ELEMENT 326 IS DISTORTING EXCESSIVELY.
   ELEMENT 326 IS DISTORTING EXCESSIVELY.
   ELEMENT 327 IS DISTORTING EXCESSIVELY.
   ELEMENT 327 IS DISTORTING EXCESSIVELY.
   ELEMENT 327 IS DISTORTING EXCESSIVELY.
   ELEMENT 327 IS DISTORTING EXCESSIVELY.
   ELEMENT 327 IS DISTORTING EXCESSIVELY.
   ELEMENT 327 IS DISTORTING EXCESSIVELY.
   ELEMENT 327 IS DISTORTING EXCESSIVELY.
   ELEMENT 327 IS DISTORTING EXCESSIVELY.
   ELEMENT 328 IS DISTORTING EXCESSIVELY.
   ELEMENT 328 IS DISTORTING EXCESSIVELY.
   ELEMENT 328 IS DISTORTING EXCESSIVELY.
   ELEMENT 328 IS DISTORTING EXCESSIVELY.
   ELEMENT 328 IS DISTORTING EXCESSIVELY.
   ELEMENT 328 IS DISTORTING EXCESSIVELY.
   ELEMENT 328 IS DISTORTING EXCESSIVELY.
   ELEMENT 328 IS DISTORTING EXCESSIVELY.
   ELEMENT 329 IS DISTORTING EXCESSIVELY.
   ELEMENT 329 IS DISTORTING EXCESSIVELY.
   ELEMENT 329 IS DISTORTING EXCESSIVELY.
   ELEMENT 329 IS DISTORTING EXCESSIVELY.
   ELEMENT 329 IS DISTORTING EXCESSIVELY.
   ELEMENT 329 IS DISTORTING EXCESSIVELY.
   ELEMENT 329 IS DISTORTING EXCESSIVELY.
   ELEMENT 329 IS DISTORTING EXCESSIVELY.
   ELEMENT 354 IS DISTORTING EXCESSIVELY.
   ELEMENT 354 IS DISTORTING EXCESSIVELY.
   ELEMENT 354 IS DISTORTING EXCESSIVELY.
   ELEMENT 354 IS DISTORTING EXCESSIVELY.
   ELEMENT 354 IS DISTORTING EXCESSIVELY.
   ELEMENT 354 IS DISTORTING EXCESSIVELY.
   ELEMENT 354 IS DISTORTING EXCESSIVELY.
   ELEMENT 354 IS DISTORTING EXCESSIVELY.
   ELEMENT 355 IS DISTORTING EXCESSIVELY.
   ELEMENT 355 IS DISTORTING EXCESSIVELY.
   ELEMENT 355 IS DISTORTING EXCESSIVELY.
   ELEMENT 355 IS DISTORTING EXCESSIVELY.
   ELEMENT 355 IS DISTORTING EXCESSIVELY.
   ELEMENT 355 IS DISTORTING EXCESSIVELY.
   ELEMENT 355 IS DISTORTING EXCESSIVELY.
   ELEMENT 355 IS DISTORTING EXCESSIVELY.
   ELEMENT 356 IS DISTORTING EXCESSIVELY.
   ELEMENT 356 IS DISTORTING EXCESSIVELY.
   ELEMENT 356 IS DISTORTING EXCESSIVELY.
   ELEMENT 356 IS DISTORTING EXCESSIVELY.
   ELEMENT 356 IS DISTORTING EXCESSIVELY.
   ELEMENT 356 IS DISTORTING EXCESSIVELY.
   ELEMENT 356 IS DISTORTING EXCESSIVELY.
   ELEMENT 356 IS DISTORTING EXCESSIVELY.
   ELEMENT 357 IS DISTORTING EXCESSIVELY.
   ELEMENT 357 IS DISTORTING EXCESSIVELY.
   ELEMENT 357 IS DISTORTING EXCESSIVELY.
   ELEMENT 357 IS DISTORTING EXCESSIVELY.
   ELEMENT 357 IS DISTORTING EXCESSIVELY.
   ELEMENT 357 IS DISTORTING EXCESSIVELY.
   ELEMENT 357 IS DISTORTING EXCESSIVELY.
   ELEMENT 357 IS DISTORTING EXCESSIVELY.
   ELEMENT 358 IS DISTORTING EXCESSIVELY.
   ELEMENT 358 IS DISTORTING EXCESSIVELY.
   ELEMENT 358 IS DISTORTING EXCESSIVELY.
   ELEMENT 358 IS DISTORTING EXCESSIVELY.
   ELEMENT 358 IS DISTORTING EXCESSIVELY.
   ELEMENT 358 IS DISTORTING EXCESSIVELY.
   ELEMENT 358 IS DISTORTING EXCESSIVELY.
   ELEMENT 358 IS DISTORTING EXCESSIVELY.
   ELEMENT 359 IS DISTORTING EXCESSIVELY.
   ELEMENT 359 IS DISTORTING EXCESSIVELY.
   ELEMENT 359 IS DISTORTING EXCESSIVELY.
   ELEMENT 359 IS DISTORTING EXCESSIVELY.
   ELEMENT 359 IS DISTORTING EXCESSIVELY.
   ELEMENT 359 IS DISTORTING EXCESSIVELY.
   ELEMENT 359 IS DISTORTING EXCESSIVELY.
   ELEMENT 359 IS DISTORTING EXCESSIVELY.


  INCREMENT    17 STARTS. ATTEMPT NUMBER  1, TIME INCREMENT  5.562E-04

 ***WARNING: EXCESSIVE DISTORTION AT A TOTAL OF 256 INTEGRATION POINTS IN SOLID 
             (CONTINUUM) ELEMENTS
 

 ***NOTE: ELEMENTS ARE DISTORTING EXCESSIVELY. CONVERGENCE IS JUDGED UNLIKELY.


  INCREMENT    17 STARTS. ATTEMPT NUMBER  2, TIME INCREMENT  1.390E-04
   ELEMENT 316 IS DISTORTING EXCESSIVELY.
   ELEMENT 316 IS DISTORTING EXCESSIVELY.
   ELEMENT 316 IS DISTORTING EXCESSIVELY.
   ELEMENT 316 IS DISTORTING EXCESSIVELY.
   ELEMENT 317 IS DISTORTING EXCESSIVELY.
   ELEMENT 317 IS DISTORTING EXCESSIVELY.
   ELEMENT 317 IS DISTORTING EXCESSIVELY.
   ELEMENT 317 IS DISTORTING EXCESSIVELY.
   ELEMENT 318 IS DISTORTING EXCESSIVELY.
   ELEMENT 318 IS DISTORTING EXCESSIVELY.
   ELEMENT 318 IS DISTORTING EXCESSIVELY.
   ELEMENT 318 IS DISTORTING EXCESSIVELY.
   ELEMENT 319 IS DISTORTING EXCESSIVELY.
   ELEMENT 319 IS DISTORTING EXCESSIVELY.
   ELEMENT 319 IS DISTORTING EXCESSIVELY.
   ELEMENT 319 IS DISTORTING EXCESSIVELY.
   ELEMENT 320 IS DISTORTING EXCESSIVELY.
   ELEMENT 320 IS DISTORTING EXCESSIVELY.
   ELEMENT 320 IS DISTORTING EXCESSIVELY.
   ELEMENT 320 IS DISTORTING EXCESSIVELY.
   ELEMENT 321 IS DISTORTING EXCESSIVELY.
   ELEMENT 321 IS DISTORTING EXCESSIVELY.
   ELEMENT 321 IS DISTORTING EXCESSIVELY.
   ELEMENT 321 IS DISTORTING EXCESSIVELY.
   ELEMENT 322 IS DISTORTING EXCESSIVELY.
   ELEMENT 322 IS DISTORTING EXCESSIVELY.
   ELEMENT 322 IS DISTORTING EXCESSIVELY.
   ELEMENT 322 IS DISTORTING EXCESSIVELY.
   ELEMENT 323 IS DISTORTING EXCESSIVELY.
   ELEMENT 323 IS DISTORTING EXCESSIVELY.
   ELEMENT 323 IS DISTORTING EXCESSIVELY.
   ELEMENT 323 IS DISTORTING EXCESSIVELY.
   ELEMENT 324 IS DISTORTING EXCESSIVELY.
   ELEMENT 324 IS DISTORTING EXCESSIVELY.
   ELEMENT 324 IS DISTORTING EXCESSIVELY.
   ELEMENT 324 IS DISTORTING EXCESSIVELY.
   ELEMENT 325 IS DISTORTING EXCESSIVELY.
   ELEMENT 325 IS DISTORTING EXCESSIVELY.
   ELEMENT 325 IS DISTORTING EXCESSIVELY.
   ELEMENT 325 IS DISTORTING EXCESSIVELY.
   ELEMENT 326 IS DISTORTING EXCESSIVELY.
   ELEMENT 326 IS DISTORTING EXCESSIVELY.
   ELEMENT 326 IS DISTORTING EXCESSIVELY.
   ELEMENT 326 IS DISTORTING EXCESSIVELY.
   ELEMENT 327 IS DISTORTING EXCESSIVELY.
   ELEMENT 327 IS DISTORTING EXCESSIVELY.
   ELEMENT 327 IS DISTORTING EXCESSIVELY.
   ELEMENT 327 IS DISTORTING EXCESSIVELY.
   ELEMENT 328 IS DISTORTING EXCESSIVELY.
   ELEMENT 328 IS DISTORTING EXCESSIVELY.
   ELEMENT 328 IS DISTORTING EXCESSIVELY.
   ELEMENT 328 IS DISTORTING EXCESSIVELY.
   ELEMENT 329 IS DISTORTING EXCESSIVELY.
   ELEMENT 329 IS DISTORTING EXCESSIVELY.
   ELEMENT 329 IS DISTORTING EXCESSIVELY.
   ELEMENT 329 IS DISTORTING EXCESSIVELY.

 ***WARNING: EXCESSIVE DISTORTION AT A TOTAL OF 56 INTEGRATION POINTS IN SOLID 
             (CONTINUUM) ELEMENTS
 

 ***NOTE: ELEMENTS ARE DISTORTING EXCESSIVELY. CONVERGENCE IS JUDGED UNLIKELY.


  INCREMENT    17 STARTS. ATTEMPT NUMBER  3, TIME INCREMENT  5.000E-05
   ELEMENT 326 IS DISTORTING EXCESSIVELY.
   ELEMENT 326 IS DISTORTING EXCESSIVELY.
   ELEMENT 327 IS DISTORTING EXCESSIVELY.
   ELEMENT 327 IS DISTORTING EXCESSIVELY.
   ELEMENT 328 IS DISTORTING EXCESSIVELY.
   ELEMENT 328 IS DISTORTING EXCESSIVELY.
   ELEMENT 329 IS DISTORTING EXCESSIVELY.
   ELEMENT 329 IS DISTORTING EXCESSIVELY.
   ELEMENT 316 IS DISTORTING EXCESSIVELY.
   ELEMENT 316 IS DISTORTING EXCESSIVELY.
   ELEMENT 317 IS DISTORTING EXCESSIVELY.
   ELEMENT 317 IS DISTORTING EXCESSIVELY.
   ELEMENT 318 IS DISTORTING EXCESSIVELY.
   ELEMENT 318 IS DISTORTING EXCESSIVELY.
   ELEMENT 319 IS DISTORTING EXCESSIVELY.
   ELEMENT 319 IS DISTORTING EXCESSIVELY.
   ELEMENT 320 IS DISTORTING EXCESSIVELY.
   ELEMENT 320 IS DISTORTING EXCESSIVELY.
   ELEMENT 321 IS DISTORTING EXCESSIVELY.
   ELEMENT 321 IS DISTORTING EXCESSIVELY.
   ELEMENT 322 IS DISTORTING EXCESSIVELY.
   ELEMENT 322 IS DISTORTING EXCESSIVELY.
   ELEMENT 323 IS DISTORTING EXCESSIVELY.
   ELEMENT 323 IS DISTORTING EXCESSIVELY.
   ELEMENT 324 IS DISTORTING EXCESSIVELY.
   ELEMENT 324 IS DISTORTING EXCESSIVELY.
   ELEMENT 325 IS DISTORTING EXCESSIVELY.
   ELEMENT 325 IS DISTORTING EXCESSIVELY.

 ***WARNING: EXCESSIVE DISTORTION AT A TOTAL OF 28 INTEGRATION POINTS IN SOLID 
             (CONTINUUM) ELEMENTS
 

 ***NOTE: ELEMENTS ARE DISTORTING EXCESSIVELY. CONVERGENCE IS JUDGED UNLIKELY.
 

 ***ERROR: TIME INCREMENT REQUIRED IS LESS THAN THE MINIMUM SPECIFIED
   ELEMENT 370 IS DISTORTING EXCESSIVELY.
   ELEMENT 370 IS DISTORTING EXCESSIVELY.
   ELEMENT 370 IS DISTORTING EXCESSIVELY.
   ELEMENT 370 IS DISTORTING EXCESSIVELY.
   ELEMENT 370 IS DISTORTING EXCESSIVELY.
   ELEMENT 370 IS DISTORTING EXCESSIVELY.
   ELEMENT 370 IS DISTORTING EXCESSIVELY.
   ELEMENT 370 IS DISTORTING EXCESSIVELY.
   ELEMENT 371 IS DISTORTING EXCESSIVELY.
   ELEMENT 371 IS DISTORTING EXCESSIVELY.
   ELEMENT 371 IS DISTORTING EXCESSIVELY.
   ELEMENT 371 IS DISTORTING EXCESSIVELY.
   ELEMENT 371 IS DISTORTING EXCESSIVELY.
   ELEMENT 371 IS DISTORTING EXCESSIVELY.
   ELEMENT 371 IS DISTORTING EXCESSIVELY.
   ELEMENT 371 IS DISTORTING EXCESSIVELY.
   ELEMENT 360 IS DISTORTING EXCESSIVELY.
   ELEMENT 360 IS DISTORTING EXCESSIVELY.
   ELEMENT 360 IS DISTORTING EXCESSIVELY.
   ELEMENT 360 IS DISTORTING EXCESSIVELY.
   ELEMENT 360 IS DISTORTING EXCESSIVELY.
   ELEMENT 360 IS DISTORTING EXCESSIVELY.
   ELEMENT 360 IS DISTORTING EXCESSIVELY.
   ELEMENT 360 IS DISTORTING EXCESSIVELY.
   ELEMENT 361 IS DISTORTING EXCESSIVELY.
   ELEMENT 361 IS DISTORTING EXCESSIVELY.
   ELEMENT 361 IS DISTORTING EXCESSIVELY.
   ELEMENT 361 IS DISTORTING EXCESSIVELY.
   ELEMENT 361 IS DISTORTING EXCESSIVELY.
   ELEMENT 361 IS DISTORTING EXCESSIVELY.
   ELEMENT 361 IS DISTORTING EXCESSIVELY.
   ELEMENT 361 IS DISTORTING EXCESSIVELY.
   ELEMENT 362 IS DISTORTING EXCESSIVELY.
   ELEMENT 362 IS DISTORTING EXCESSIVELY.
   ELEMENT 362 IS DISTORTING EXCESSIVELY.
   ELEMENT 362 IS DISTORTING EXCESSIVELY.
   ELEMENT 362 IS DISTORTING EXCESSIVELY.
   ELEMENT 362 IS DISTORTING EXCESSIVELY.
   ELEMENT 362 IS DISTORTING EXCESSIVELY.
   ELEMENT 362 IS DISTORTING EXCESSIVELY.
   ELEMENT 363 IS DISTORTING EXCESSIVELY.
   ELEMENT 363 IS DISTORTING EXCESSIVELY.
   ELEMENT 363 IS DISTORTING EXCESSIVELY.
   ELEMENT 363 IS DISTORTING EXCESSIVELY.
   ELEMENT 363 IS DISTORTING EXCESSIVELY.
   ELEMENT 363 IS DISTORTING EXCESSIVELY.
   ELEMENT 363 IS DISTORTING EXCESSIVELY.
   ELEMENT 363 IS DISTORTING EXCESSIVELY.
   ELEMENT 364 IS DISTORTING EXCESSIVELY.
   ELEMENT 364 IS DISTORTING EXCESSIVELY.
   ELEMENT 364 IS DISTORTING EXCESSIVELY.
   ELEMENT 364 IS DISTORTING EXCESSIVELY.
   ELEMENT 364 IS DISTORTING EXCESSIVELY.
   ELEMENT 364 IS DISTORTING EXCESSIVELY.
   ELEMENT 364 IS DISTORTING EXCESSIVELY.
   ELEMENT 364 IS DISTORTING EXCESSIVELY.
   ELEMENT 365 IS DISTORTING EXCESSIVELY.
   ELEMENT 365 IS DISTORTING EXCESSIVELY.
   ELEMENT 365 IS DISTORTING EXCESSIVELY.
   ELEMENT 365 IS DISTORTING EXCESSIVELY.
   ELEMENT 365 IS DISTORTING EXCESSIVELY.
   ELEMENT 365 IS DISTORTING EXCESSIVELY.
   ELEMENT 365 IS DISTORTING EXCESSIVELY.
   ELEMENT 365 IS DISTORTING EXCESSIVELY.
   ELEMENT 366 IS DISTORTING EXCESSIVELY.
   ELEMENT 366 IS DISTORTING EXCESSIVELY.
   ELEMENT 366 IS DISTORTING EXCESSIVELY.
   ELEMENT 366 IS DISTORTING EXCESSIVELY.
   ELEMENT 366 IS DISTORTING EXCESSIVELY.
   ELEMENT 366 IS DISTORTING EXCESSIVELY.
   ELEMENT 366 IS DISTORTING EXCESSIVELY.
   ELEMENT 366 IS DISTORTING EXCESSIVELY.
   ELEMENT 367 IS DISTORTING EXCESSIVELY.
   ELEMENT 367 IS DISTORTING EXCESSIVELY.
   ELEMENT 367 IS DISTORTING EXCESSIVELY.
   ELEMENT 367 IS DISTORTING EXCESSIVELY.
   ELEMENT 367 IS DISTORTING EXCESSIVELY.
   ELEMENT 367 IS DISTORTING EXCESSIVELY.
   ELEMENT 367 IS DISTORTING EXCESSIVELY.
   ELEMENT 367 IS DISTORTING EXCESSIVELY.
   ELEMENT 368 IS DISTORTING EXCESSIVELY.
   ELEMENT 368 IS DISTORTING EXCESSIVELY.
   ELEMENT 368 IS DISTORTING EXCESSIVELY.
   ELEMENT 368 IS DISTORTING EXCESSIVELY.
   ELEMENT 368 IS DISTORTING EXCESSIVELY.
   ELEMENT 368 IS DISTORTING EXCESSIVELY.
   ELEMENT 368 IS DISTORTING EXCESSIVELY.
   ELEMENT 368 IS DISTORTING EXCESSIVELY.
   ELEMENT 369 IS DISTORTING EXCESSIVELY.
   ELEMENT 369 IS DISTORTING EXCESSIVELY.
   ELEMENT 369 IS DISTORTING EXCESSIVELY.
   ELEMENT 369 IS DISTORTING EXCESSIVELY.
   ELEMENT 369 IS DISTORTING EXCESSIVELY.
   ELEMENT 369 IS DISTORTING EXCESSIVELY.
   ELEMENT 369 IS DISTORTING EXCESSIVELY.
   ELEMENT 369 IS DISTORTING EXCESSIVELY.
   ELEMENT 326 IS DISTORTING EXCESSIVELY.
   ELEMENT 326 IS DISTORTING EXCESSIVELY.
   ELEMENT 326 IS DISTORTING EXCESSIVELY.
   ELEMENT 326 IS DISTORTING EXCESSIVELY.
   ELEMENT 326 IS DISTORTING EXCESSIVELY.
   ELEMENT 326 IS DISTORTING EXCESSIVELY.
   ELEMENT 326 IS DISTORTING EXCESSIVELY.
   ELEMENT 326 IS DISTORTING EXCESSIVELY.
   ELEMENT 327 IS DISTORTING EXCESSIVELY.
   ELEMENT 327 IS DISTORTING EXCESSIVELY.
   ELEMENT 327 IS DISTORTING EXCESSIVELY.
   ELEMENT 327 IS DISTORTING EXCESSIVELY.
   ELEMENT 327 IS DISTORTING EXCESSIVELY.
   ELEMENT 327 IS DISTORTING EXCESSIVELY.
   ELEMENT 327 IS DISTORTING EXCESSIVELY.
   ELEMENT 327 IS DISTORTING EXCESSIVELY.
   ELEMENT 328 IS DISTORTING EXCESSIVELY.
   ELEMENT 328 IS DISTORTING EXCESSIVELY.
   ELEMENT 328 IS DISTORTING EXCESSIVELY.
   ELEMENT 328 IS DISTORTING EXCESSIVELY.
   ELEMENT 328 IS DISTORTING EXCESSIVELY.
   ELEMENT 328 IS DISTORTING EXCESSIVELY.
   ELEMENT 328 IS DISTORTING EXCESSIVELY.
   ELEMENT 328 IS DISTORTING EXCESSIVELY.
   ELEMENT 329 IS DISTORTING EXCESSIVELY.
   ELEMENT 329 IS DISTORTING EXCESSIVELY.
   ELEMENT 329 IS DISTORTING EXCESSIVELY.
   ELEMENT 329 IS DISTORTING EXCESSIVELY.
   ELEMENT 329 IS DISTORTING EXCESSIVELY.
   ELEMENT 329 IS DISTORTING EXCESSIVELY.
   ELEMENT 329 IS DISTORTING EXCESSIVELY.
   ELEMENT 329 IS DISTORTING EXCESSIVELY.
   ELEMENT 354 IS DISTORTING EXCESSIVELY.
   ELEMENT 354 IS DISTORTING EXCESSIVELY.
   ELEMENT 354 IS DISTORTING EXCESSIVELY.
   ELEMENT 354 IS DISTORTING EXCESSIVELY.
   ELEMENT 354 IS DISTORTING EXCESSIVELY.
   ELEMENT 354 IS DISTORTING EXCESSIVELY.
   ELEMENT 354 IS DISTORTING EXCESSIVELY.
   ELEMENT 354 IS DISTORTING EXCESSIVELY.
   ELEMENT 355 IS DISTORTING EXCESSIVELY.
   ELEMENT 355 IS DISTORTING EXCESSIVELY.
   ELEMENT 355 IS DISTORTING EXCESSIVELY.
   ELEMENT 355 IS DISTORTING EXCESSIVELY.
   ELEMENT 355 IS DISTORTING EXCESSIVELY.
   ELEMENT 355 IS DISTORTING EXCESSIVELY.
   ELEMENT 355 IS DISTORTING EXCESSIVELY.
   ELEMENT 355 IS DISTORTING EXCESSIVELY.
   ELEMENT 356 IS DISTORTING EXCESSIVELY.
   ELEMENT 356 IS DISTORTING EXCESSIVELY.
   ELEMENT 356 IS DISTORTING EXCESSIVELY.
   ELEMENT 356 IS DISTORTING EXCESSIVELY.
   ELEMENT 356 IS DISTORTING EXCESSIVELY.
   ELEMENT 356 IS DISTORTING EXCESSIVELY.
   ELEMENT 356 IS DISTORTING EXCESSIVELY.
   ELEMENT 356 IS DISTORTING EXCESSIVELY.
   ELEMENT 357 IS DISTORTING EXCESSIVELY.
   ELEMENT 357 IS DISTORTING EXCESSIVELY.
   ELEMENT 357 IS DISTORTING EXCESSIVELY.
   ELEMENT 357 IS DISTORTING EXCESSIVELY.
   ELEMENT 357 IS DISTORTING EXCESSIVELY.
   ELEMENT 357 IS DISTORTING EXCESSIVELY.
   ELEMENT 357 IS DISTORTING EXCESSIVELY.
   ELEMENT 357 IS DISTORTING EXCESSIVELY.
   ELEMENT 358 IS DISTORTING EXCESSIVELY.
   ELEMENT 358 IS DISTORTING EXCESSIVELY.
   ELEMENT 358 IS DISTORTING EXCESSIVELY.
   ELEMENT 358 IS DISTORTING EXCESSIVELY.
   ELEMENT 358 IS DISTORTING EXCESSIVELY.
   ELEMENT 358 IS DISTORTING EXCESSIVELY.
   ELEMENT 358 IS DISTORTING EXCESSIVELY.
   ELEMENT 358 IS DISTORTING EXCESSIVELY.
   ELEMENT 359 IS DISTORTING EXCESSIVELY.
   ELEMENT 359 IS DISTORTING EXCESSIVELY.
   ELEMENT 359 IS DISTORTING EXCESSIVELY.
   ELEMENT 359 IS DISTORTING EXCESSIVELY.
   ELEMENT 359 IS DISTORTING EXCESSIVELY.
   ELEMENT 359 IS DISTORTING EXCESSIVELY.
   ELEMENT 359 IS DISTORTING EXCESSIVELY.
   ELEMENT 359 IS DISTORTING EXCESSIVELY.
   ELEMENT 316 IS DISTORTING EXCESSIVELY.
   ELEMENT 316 IS DISTORTING EXCESSIVELY.
   ELEMENT 316 IS DISTORTING EXCESSIVELY.
   ELEMENT 316 IS DISTORTING EXCESSIVELY.
   ELEMENT 316 IS DISTORTING EXCESSIVELY.
   ELEMENT 316 IS DISTORTING EXCESSIVELY.
   ELEMENT 316 IS DISTORTING EXCESSIVELY.
   ELEMENT 316 IS DISTORTING EXCESSIVELY.
   ELEMENT 317 IS DISTORTING EXCESSIVELY.
   ELEMENT 317 IS DISTORTING EXCESSIVELY.
   ELEMENT 317 IS DISTORTING EXCESSIVELY.
   ELEMENT 317 IS DISTORTING EXCESSIVELY.
   ELEMENT 317 IS DISTORTING EXCESSIVELY.
   ELEMENT 317 IS DISTORTING EXCESSIVELY.
   ELEMENT 317 IS DISTORTING EXCESSIVELY.
   ELEMENT 317 IS DISTORTING EXCESSIVELY.
   ELEMENT 318 IS DISTORTING EXCESSIVELY.
   ELEMENT 318 IS DISTORTING EXCESSIVELY.
   ELEMENT 318 IS DISTORTING EXCESSIVELY.
   ELEMENT 318 IS DISTORTING EXCESSIVELY.
   ELEMENT 318 IS DISTORTING EXCESSIVELY.
   ELEMENT 318 IS DISTORTING EXCESSIVELY.
   ELEMENT 318 IS DISTORTING EXCESSIVELY.
   ELEMENT 318 IS DISTORTING EXCESSIVELY.
   ELEMENT 319 IS DISTORTING EXCESSIVELY.
   ELEMENT 319 IS DISTORTING EXCESSIVELY.
   ELEMENT 319 IS DISTORTING EXCESSIVELY.
   ELEMENT 319 IS DISTORTING EXCESSIVELY.
   ELEMENT 319 IS DISTORTING EXCESSIVELY.
   ELEMENT 319 IS DISTORTING EXCESSIVELY.
   ELEMENT 319 IS DISTORTING EXCESSIVELY.
   ELEMENT 319 IS DISTORTING EXCESSIVELY.
   ELEMENT 320 IS DISTORTING EXCESSIVELY.
   ELEMENT 320 IS DISTORTING EXCESSIVELY.
   ELEMENT 320 IS DISTORTING EXCESSIVELY.
   ELEMENT 320 IS DISTORTING EXCESSIVELY.
   ELEMENT 320 IS DISTORTING EXCESSIVELY.
   ELEMENT 320 IS DISTORTING EXCESSIVELY.
   ELEMENT 320 IS DISTORTING EXCESSIVELY.
   ELEMENT 320 IS DISTORTING EXCESSIVELY.
   ELEMENT 321 IS DISTORTING EXCESSIVELY.
   ELEMENT 321 IS DISTORTING EXCESSIVELY.
   ELEMENT 321 IS DISTORTING EXCESSIVELY.
   ELEMENT 321 IS DISTORTING EXCESSIVELY.
   ELEMENT 321 IS DISTORTING EXCESSIVELY.
   ELEMENT 321 IS DISTORTING EXCESSIVELY.
   ELEMENT 321 IS DISTORTING EXCESSIVELY.
   ELEMENT 321 IS DISTORTING EXCESSIVELY.
   ELEMENT 322 IS DISTORTING EXCESSIVELY.
   ELEMENT 322 IS DISTORTING EXCESSIVELY.
   ELEMENT 322 IS DISTORTING EXCESSIVELY.
   ELEMENT 322 IS DISTORTING EXCESSIVELY.
   ELEMENT 322 IS DISTORTING EXCESSIVELY.
   ELEMENT 322 IS DISTORTING EXCESSIVELY.
   ELEMENT 322 IS DISTORTING EXCESSIVELY.
   ELEMENT 322 IS DISTORTING EXCESSIVELY.
   ELEMENT 323 IS DISTORTING EXCESSIVELY.
   ELEMENT 323 IS DISTORTING EXCESSIVELY.
   ELEMENT 323 IS DISTORTING EXCESSIVELY.
   ELEMENT 323 IS DISTORTING EXCESSIVELY.
   ELEMENT 323 IS DISTORTING EXCESSIVELY.
   ELEMENT 323 IS DISTORTING EXCESSIVELY.
   ELEMENT 323 IS DISTORTING EXCESSIVELY.
   ELEMENT 323 IS DISTORTING EXCESSIVELY.
   ELEMENT 324 IS DISTORTING EXCESSIVELY.
   ELEMENT 324 IS DISTORTING EXCESSIVELY.
   ELEMENT 324 IS DISTORTING EXCESSIVELY.
   ELEMENT 324 IS DISTORTING EXCESSIVELY.
   ELEMENT 324 IS DISTORTING EXCESSIVELY.
   ELEMENT 324 IS DISTORTING EXCESSIVELY.
   ELEMENT 324 IS DISTORTING EXCESSIVELY.
   ELEMENT 324 IS DISTORTING EXCESSIVELY.
   ELEMENT 325 IS DISTORTING EXCESSIVELY.
   ELEMENT 325 IS DISTORTING EXCESSIVELY.
   ELEMENT 325 IS DISTORTING EXCESSIVELY.
   ELEMENT 325 IS DISTORTING EXCESSIVELY.
   ELEMENT 325 IS DISTORTING EXCESSIVELY.
   ELEMENT 325 IS DISTORTING EXCESSIVELY.
   ELEMENT 325 IS DISTORTING EXCESSIVELY.
   ELEMENT 325 IS DISTORTING EXCESSIVELY.

 ***ERROR: THE ANALYSIS HAS BEEN TERMINATED DUE TO PREVIOUS ERRORS. ALL OUTPUT 
           REQUESTS HAVE BEEN WRITTEN FOR THE LAST CONVERGED INCREMENT.



     ANALYSIS SUMMARY:
     TOTAL OF        117  INCREMENTS
                       8  CUTBACKS IN AUTOMATIC INCREMENTATION
                     116  ITERATIONS INCLUDING CONTACT ITERATIONS IF PRESENT
                     116  PASSES THROUGH THE EQUATION SOLVER OF WHICH 
                     116  INVOLVE MATRIX DECOMPOSITION, INCLUDING
                       0  DECOMPOSITION(S) OF THE MASS MATRIX
                       1  REORDERING OF EQUATIONS TO MINIMIZE WAVEFRONT
                       0  ADDITIONAL RESIDUAL EVALUATIONS FOR LINE SEARCHES
                       0  ADDITIONAL OPERATOR EVALUATIONS FOR LINE SEARCHES
                     439  WARNING MESSAGES DURING USER INPUT PROCESSING
                       8  WARNING MESSAGES DURING ANALYSIS
                       0  ANALYSIS WARNINGS ARE NUMERICAL PROBLEM MESSAGES
                       0  ANALYSIS WARNINGS ARE NEGATIVE EIGENVALUE MESSAGES
                       2  ERROR MESSAGES



     JOB TIME SUMMARY
       USER TIME (SEC)      =   196.13    
       SYSTEM TIME (SEC)    =   72.600    
       TOTAL CPU TIME (SEC) =   268.73    
       WALLCLOCK TIME (SEC) =         18
