1

   Abaqus 2021                                  Date 22-Feb-2023   Time 18:29:33
   For use by UNIVERSITAET BERN under license from Dassault Systemes or its subsidiary.

                                                                                 
                                                                                 
 STEP    1     INCREMENT     1     STEP TIME    0.00    


                        S T E P       1     S T A T I C   A N A L Y S I S


                                                                                          

     AUTOMATIC TIME CONTROL WITH -
          A SUGGESTED INITIAL TIME INCREMENT OF                5.000E-02
          AND A TOTAL TIME PERIOD OF                            1.00    
          THE MINIMUM TIME INCREMENT ALLOWED IS                5.000E-05
          THE MAXIMUM TIME INCREMENT ALLOWED IS                5.000E-02

     LINEAR EQUATION SOLVER TYPE         DIRECT SPARSE

 CONVERGENCE TOLERANCE PARAMETERS FOR FORCE    
     CRITERION FOR RESIDUAL FORCE     FOR A NONLINEAR PROBLEM          5.000E-03
     CRITERION FOR DISP.    CORRECTION IN A NONLINEAR PROBLEM          1.000E-02
     INITIAL VALUE OF TIME AVERAGE FORCE                               1.000E-02
     AVERAGE FORCE     IS TIME AVERAGE FORCE    
     ALTERNATE CRIT. FOR RESIDUAL FORCE     FOR A NONLINEAR PROBLEM    2.000E-02
     CRITERION FOR ZERO FORCE     RELATIVE TO TIME AVRG. FORCE         1.000E-05
     CRITERION FOR RESIDUAL FORCE     WHEN THERE IS ZERO FLUX          1.000E-05
     CRITERION FOR DISP.    CORRECTION WHEN THERE IS ZERO FLUX         1.000E-03
     CRITERION FOR RESIDUAL FORCE     FOR A LINEAR INCREMENT           1.000E-08
     FIELD CONVERSION RATIO                                             1.00    
     CRITERION FOR ZERO FORCE     REL. TO TIME AVRG. MAX. FORCE        1.000E-05
     CRITERION FOR ZERO DISP.    RELATIVE TO CHARACTERISTIC LENGTH     1.000E-08

 CONVERGENCE TOLERANCE PARAMETERS FOR MOMENT   
     CRITERION FOR RESIDUAL MOMENT    FOR A NONLINEAR PROBLEM          5.000E-03
     CRITERION FOR ROTATION CORRECTION IN A NONLINEAR PROBLEM          1.000E-02
     INITIAL VALUE OF TIME AVERAGE MOMENT                              1.000E-02
     AVERAGE MOMENT    IS TIME AVERAGE MOMENT   
     ALTERNATE CRIT. FOR RESIDUAL MOMENT    FOR A NONLINEAR PROBLEM    2.000E-02
     CRITERION FOR ZERO MOMENT    RELATIVE TO TIME AVRG. MOMENT        1.000E-05
     CRITERION FOR RESIDUAL MOMENT    WHEN THERE IS ZERO FLUX          1.000E-05
     CRITERION FOR ROTATION CORRECTION WHEN THERE IS ZERO FLUX         1.000E-03
     CRITERION FOR RESIDUAL MOMENT    FOR A LINEAR INCREMENT           1.000E-08
     FIELD CONVERSION RATIO                                             1.00    
     CRITERION FOR ZERO MOMENT    REL. TO TIME AVRG. MAX. MOMENT       1.000E-05

     VOLUMETRIC STRAIN COMPATIBILITY TOLERANCE FOR HYBRID SOLIDS       1.000E-05
     AXIAL STRAIN COMPATIBILITY TOLERANCE FOR HYBRID BEAMS             1.000E-05
     TRANS. SHEAR STRAIN COMPATIBILITY TOLERANCE FOR HYBRID BEAMS      1.000E-05
     SOFT CONTACT CONSTRAINT COMPATIBILITY TOLERANCE FOR P>P0          5.000E-03
     SOFT CONTACT CONSTRAINT COMPATIBILITY TOLERANCE FOR P=0.0         0.100    
     CONTACT FORCE ERROR TOLERANCE FOR CONVERT SDI=YES                 1.00    
     DISPLACEMENT COMPATIBILITY TOLERANCE FOR DCOUP ELEMENTS           1.000E-05
     ROTATION COMPATIBILITY TOLERANCE FOR DCOUP ELEMENTS               1.000E-05

 EQUILIBRIUM WILL BE CHECKED FOR SEVERE DISCONTINUITY ITERATIONS

 TIME INCREMENTATION CONTROL PARAMETERS:
     FIRST EQUILIBRIUM ITERATION FOR CONSECUTIVE DIVERGENCE CHECK              4
     EQUILIBRIUM ITERATION AT WHICH LOG. CONVERGENCE RATE CHECK BEGINS         8
     EQUILIBRIUM ITERATION AFTER WHICH ALTERNATE RESIDUAL IS USED              9
     MAXIMUM EQUILIBRIUM ITERATIONS ALLOWED                                   16
     EQUILIBRIUM ITERATION COUNT FOR CUT-BACK IN NEXT INCREMENT               10
     MAXIMUM EQUILIB. ITERS IN TWO INCREMENTS FOR TIME INCREMENT INCREASE      4
     MAXIMUM ITERATIONS FOR SEVERE DISCONTINUITIES                            50
     MAXIMUM ATTEMPTS ALLOWED IN AN INCREMENT                                  5
     MAXIMUM DISCON. ITERS IN TWO INCREMENTS FOR TIME INCREMENT INCREASE      50
     MAXIMUM CONTACT AUGMENTATIONS FOR *SURFACE BEHAVIOR,AUGMENTED LAGRANGE   50
     CUT-BACK FACTOR AFTER DIVERGENCE                                 0.2500    
     CUT-BACK FACTOR FOR TOO SLOW CONVERGENCE                         0.5000    
     CUT-BACK FACTOR AFTER TOO MANY EQUILIBRIUM ITERATIONS            0.7500    
     CUT-BACK FACTOR AFTER TOO MANY SEVERE DISCONTINUITY ITERATIONS   0.2500    
     CUT-BACK FACTOR AFTER PROBLEMS IN ELEMENT ASSEMBLY               0.2500    
     INCREASE FACTOR AFTER TWO INCREMENTS THAT CONVERGE QUICKLY        1.500    
     MAX. TIME INCREMENT INCREASE FACTOR ALLOWED                       1.500    
     MAX. TIME INCREMENT INCREASE FACTOR ALLOWED (DYNAMICS)            1.250    
     MAX. TIME INCREMENT INCREASE FACTOR ALLOWED (DIFFUSION)           2.000    
     MINIMUM TIME INCREMENT RATIO FOR EXTRAPOLATION TO OCCUR          0.1000    
     MAX. RATIO OF TIME INCREMENT TO STABILITY LIMIT                   1.000    
     FRACTION OF STABILITY LIMIT FOR NEW TIME INCREMENT               0.9500    
     TIME INCREMENT INCREASE FACTOR BEFORE A TIME POINT                1.000    
     GLOBAL STABILIZATION CONTROL IS NOT USED

          PRINT OF INCREMENT NUMBER, TIME, ETC., EVERY    1  INCREMENTS

     THE MAXIMUM NUMBER OF INCREMENTS IN THIS STEP IS                    1000

          LARGE DISPLACEMENT THEORY WILL BE USED

          UNSYMMETRIC MATRIX STORAGE AND SOLUTION WILL BE USED

     LINEAR EXTRAPOLATION WILL BE USED

     CHARACTERISTIC ELEMENT LENGTH      1.24    

     DETAILS REGARDING ACTUAL SOLUTION WAVEFRONT REQUESTED

     DETAILED OUTPUT OF DIAGNOSTICS TO DATABASE REQUESTED

     PRINT OF INCREMENT NUMBER, TIME, ETC., TO THE MESSAGE FILE EVERY     1  INCREMENTS

     ELEMENT OPERATIONS WILL BE CARRIED OUT IN PARALLEL USING  42 PROCESSORS

     PARALLEL CONTACT TRACKING ENABLED


     COLLECTING MODEL CONSTRAINT INFORMATION FOR OVERCONSTRAINT CHECKS

     COLLECTING STEP CONSTRAINT INFORMATION FOR OVERCONSTRAINT CHECKS


  INCREMENT     1 STARTS. ATTEMPT NUMBER  1, TIME INCREMENT  5.000E-02
 
     INITIAL ELEMENT LOAD BALANCE
            PROCESS    1   THREAD     NUMBER OF ELEMENTS
                              1            10
                              2            10
                              3            10
                              4            10
                              5            10
                              6            10
                              7            10
                              8            10
                              9            10
                             10            10
                             11            10
                             12            10
                             13            10
                             14            10
                             15            10
                             16            20
                             17            10
                             18            10
                             19            10
                             20            10
                             21            10
                             22            20
                             23            14
                             24            10
                             25            10
                             26            10
                             27            10
                             28            10
                             29            10
                             30            10
                             31            10
                             32            10
                             33            10
                             34            10
                             35            10
                             36            10
                             37            10
                             38            10
                             39            10
                             40            10
                             41            10
                             42            10

  NUMBER OF EQUATIONS =      1485     NUMBER OF RHS =    1
  NUMBER OF FLOATING PT. OPERATIONS =  1.11E+07

  USING THE DIRECT SOLVER WITH  42 PROCESSORS

     CHECK POINT   START OF SOLVER    

     CHECK POINT  END OF SOLVER       

       ELAPSED USER TIME (SEC)      =   4.7300    
       ELAPSED SYSTEM TIME (SEC)    =  6.00000E-02
       ELAPSED TOTAL CPU TIME (SEC) =   4.7900    
       ELAPSED WALLCLOCK TIME (SEC) =          0

               CONVERGENCE CHECKS FOR EQUILIBRIUM ITERATION     1


 AVERAGE FORCE                       1.24       TIME AVG. FORCE        1.24    
 ALL FORCE     RESIDUALS ARE ZERO
 LARGEST INCREMENT OF DISP.         7.324E-03   AT NODE       1069   DOF  3
 LARGEST CORRECTION TO DISP.        7.324E-03   AT NODE       1069   DOF  3
          THE FORCE     EQUILIBRIUM RESPONSE WAS LINEAR IN THIS INCREMENT

 AVERAGE MOMENT                      0.00       TIME AVG. MOMENT       1.55    
                                                (FROM FORCE     FIELD)
 ALL MOMENT    RESIDUALS ARE ZERO
 LARGEST INCREMENT OF ROTATION      3.000E-04   AT NODE        202   DOF  5
 LARGEST CORRECTION TO ROTATION     3.000E-04   AT NODE        202   DOF  5
          THERE IS ZERO MOMENT    EVERYWHERE

 ITERATION SUMMARY FOR THE INCREMENT:   1 TOTAL ITERATIONS, OF WHICH
   0 ARE SEVERE DISCONTINUITY ITERATIONS AND  1 ARE EQUILIBRIUM ITERATIONS.

 TIME INCREMENT COMPLETED  5.000E-02,  FRACTION OF STEP COMPLETED  5.000E-02
 STEP TIME COMPLETED       5.000E-02,  TOTAL TIME COMPLETED        5.000E-02


  INCREMENT     2 STARTS. ATTEMPT NUMBER  1, TIME INCREMENT  5.000E-02

  NUMBER OF EQUATIONS =      1485     NUMBER OF RHS =    1
  NUMBER OF FLOATING PT. OPERATIONS =  1.11E+07

  USING THE DIRECT SOLVER WITH  42 PROCESSORS

     CHECK POINT   START OF SOLVER    

     CHECK POINT  END OF SOLVER       

       ELAPSED USER TIME (SEC)      =  0.45000    
       ELAPSED SYSTEM TIME (SEC)    =  0.12000    
       ELAPSED TOTAL CPU TIME (SEC) =  0.57000    
       ELAPSED WALLCLOCK TIME (SEC) =          0

               CONVERGENCE CHECKS FOR EQUILIBRIUM ITERATION     1


 AVERAGE FORCE                       2.02       TIME AVG. FORCE        1.63    
 ALL FORCE     RESIDUALS ARE ZERO
 LARGEST INCREMENT OF DISP.         7.324E-03   AT NODE       1069   DOF  3
 LARGEST CORRECTION TO DISP.        2.147E-06   AT NODE       1069   DOF  1
          THE FORCE     EQUILIBRIUM RESPONSE WAS LINEAR IN THIS INCREMENT

 AVERAGE MOMENT                      0.00       TIME AVG. MOMENT       1.55    
                                                (FROM FORCE     FIELD)
 ALL MOMENT    RESIDUALS ARE ZERO
 LARGEST INCREMENT OF ROTATION      3.000E-04   AT NODE        202   DOF  5
 LARGEST CORRECTION TO ROTATION    -8.475E-32   AT NODE        202   DOF  5
          THERE IS ZERO MOMENT    EVERYWHERE

 ITERATION SUMMARY FOR THE INCREMENT:   1 TOTAL ITERATIONS, OF WHICH
   0 ARE SEVERE DISCONTINUITY ITERATIONS AND  1 ARE EQUILIBRIUM ITERATIONS.

 TIME INCREMENT COMPLETED  5.000E-02,  FRACTION OF STEP COMPLETED  0.100    
 STEP TIME COMPLETED       0.100    ,  TOTAL TIME COMPLETED        0.100    


  INCREMENT     3 STARTS. ATTEMPT NUMBER  1, TIME INCREMENT  5.000E-02

  NUMBER OF EQUATIONS =      1485     NUMBER OF RHS =    1
  NUMBER OF FLOATING PT. OPERATIONS =  1.11E+07

  USING THE DIRECT SOLVER WITH  42 PROCESSORS

     CHECK POINT   START OF SOLVER    

     CHECK POINT  END OF SOLVER       

       ELAPSED USER TIME (SEC)      =  0.31000    
       ELAPSED SYSTEM TIME (SEC)    =  0.15000    
       ELAPSED TOTAL CPU TIME (SEC) =  0.46000    
       ELAPSED WALLCLOCK TIME (SEC) =          0

               CONVERGENCE CHECKS FOR EQUILIBRIUM ITERATION     1


 AVERAGE FORCE                       2.48       TIME AVG. FORCE        1.91    
 ALL FORCE     RESIDUALS ARE ZERO
 LARGEST INCREMENT OF DISP.         7.324E-03   AT NODE       1069   DOF  3
 LARGEST CORRECTION TO DISP.        2.147E-06   AT NODE       1069   DOF  1
          THE FORCE     EQUILIBRIUM RESPONSE WAS LINEAR IN THIS INCREMENT

 AVERAGE MOMENT                      0.00       TIME AVG. MOMENT       2.03    
                                                (FROM FORCE     FIELD)
 ALL MOMENT    RESIDUALS ARE ZERO
 LARGEST INCREMENT OF ROTATION      3.000E-04   AT NODE        202   DOF  5
 LARGEST CORRECTION TO ROTATION     1.355E-19   AT NODE        202   DOF  4
          THERE IS ZERO MOMENT    EVERYWHERE

 ITERATION SUMMARY FOR THE INCREMENT:   1 TOTAL ITERATIONS, OF WHICH
   0 ARE SEVERE DISCONTINUITY ITERATIONS AND  1 ARE EQUILIBRIUM ITERATIONS.

 TIME INCREMENT COMPLETED  5.000E-02,  FRACTION OF STEP COMPLETED  0.150    
 STEP TIME COMPLETED       0.150    ,  TOTAL TIME COMPLETED        0.150    


  INCREMENT     4 STARTS. ATTEMPT NUMBER  1, TIME INCREMENT  5.000E-02

  NUMBER OF EQUATIONS =      1485     NUMBER OF RHS =    1
  NUMBER OF FLOATING PT. OPERATIONS =  1.11E+07

  USING THE DIRECT SOLVER WITH  42 PROCESSORS

     CHECK POINT   START OF SOLVER    

     CHECK POINT  END OF SOLVER       

       ELAPSED USER TIME (SEC)      =   1.0100    
       ELAPSED SYSTEM TIME (SEC)    =  8.00000E-02
       ELAPSED TOTAL CPU TIME (SEC) =   1.0900    
       ELAPSED WALLCLOCK TIME (SEC) =          0

               CONVERGENCE CHECKS FOR EQUILIBRIUM ITERATION     1


 AVERAGE FORCE                       2.84       TIME AVG. FORCE        2.15    
 ALL FORCE     RESIDUALS ARE ZERO
 LARGEST INCREMENT OF DISP.         7.324E-03   AT NODE       1069   DOF  3
 LARGEST CORRECTION TO DISP.        2.147E-06   AT NODE       1069   DOF  1
          THE FORCE     EQUILIBRIUM RESPONSE WAS LINEAR IN THIS INCREMENT

 AVERAGE MOMENT                      0.00       TIME AVG. MOMENT       2.38    
                                                (FROM FORCE     FIELD)
 ALL MOMENT    RESIDUALS ARE ZERO
 LARGEST INCREMENT OF ROTATION      3.000E-04   AT NODE        202   DOF  5
 LARGEST CORRECTION TO ROTATION    -4.337E-19   AT NODE        202   DOF  5
          THERE IS ZERO MOMENT    EVERYWHERE

 ITERATION SUMMARY FOR THE INCREMENT:   1 TOTAL ITERATIONS, OF WHICH
   0 ARE SEVERE DISCONTINUITY ITERATIONS AND  1 ARE EQUILIBRIUM ITERATIONS.

 TIME INCREMENT COMPLETED  5.000E-02,  FRACTION OF STEP COMPLETED  0.200    
 STEP TIME COMPLETED       0.200    ,  TOTAL TIME COMPLETED        0.200    


  INCREMENT     5 STARTS. ATTEMPT NUMBER  1, TIME INCREMENT  5.000E-02

  NUMBER OF EQUATIONS =      1485     NUMBER OF RHS =    1
  NUMBER OF FLOATING PT. OPERATIONS =  1.11E+07

  USING THE DIRECT SOLVER WITH  42 PROCESSORS

     CHECK POINT   START OF SOLVER    

     CHECK POINT  END OF SOLVER       

       ELAPSED USER TIME (SEC)      =  0.38000    
       ELAPSED SYSTEM TIME (SEC)    =  5.00000E-02
       ELAPSED TOTAL CPU TIME (SEC) =  0.43000    
       ELAPSED WALLCLOCK TIME (SEC) =          1

               CONVERGENCE CHECKS FOR EQUILIBRIUM ITERATION     1


 AVERAGE FORCE                       3.16       TIME AVG. FORCE        2.35    
 ALL FORCE     RESIDUALS ARE ZERO
 LARGEST INCREMENT OF DISP.         7.324E-03   AT NODE       1069   DOF  3
 LARGEST CORRECTION TO DISP.        2.147E-06   AT NODE       1069   DOF  1
          THE FORCE     EQUILIBRIUM RESPONSE WAS LINEAR IN THIS INCREMENT

 AVERAGE MOMENT                      0.00       TIME AVG. MOMENT       2.67    
                                                (FROM FORCE     FIELD)
 ALL MOMENT    RESIDUALS ARE ZERO
 LARGEST INCREMENT OF ROTATION      3.000E-04   AT NODE        202   DOF  5
 LARGEST CORRECTION TO ROTATION     2.168E-19   AT NODE        202   DOF  5
          THERE IS ZERO MOMENT    EVERYWHERE

 ITERATION SUMMARY FOR THE INCREMENT:   1 TOTAL ITERATIONS, OF WHICH
   0 ARE SEVERE DISCONTINUITY ITERATIONS AND  1 ARE EQUILIBRIUM ITERATIONS.

 TIME INCREMENT COMPLETED  5.000E-02,  FRACTION OF STEP COMPLETED  0.250    
 STEP TIME COMPLETED       0.250    ,  TOTAL TIME COMPLETED        0.250    


  INCREMENT     6 STARTS. ATTEMPT NUMBER  1, TIME INCREMENT  5.000E-02

  NUMBER OF EQUATIONS =      1485     NUMBER OF RHS =    1
  NUMBER OF FLOATING PT. OPERATIONS =  1.11E+07

  USING THE DIRECT SOLVER WITH  42 PROCESSORS

     CHECK POINT   START OF SOLVER    

     CHECK POINT  END OF SOLVER       

       ELAPSED USER TIME (SEC)      =  0.31000    
       ELAPSED SYSTEM TIME (SEC)    =  4.00000E-02
       ELAPSED TOTAL CPU TIME (SEC) =  0.35000    
       ELAPSED WALLCLOCK TIME (SEC) =          0

               CONVERGENCE CHECKS FOR EQUILIBRIUM ITERATION     1


 AVERAGE FORCE                       3.47       TIME AVG. FORCE        2.53    
 ALL FORCE     RESIDUALS ARE ZERO
 LARGEST INCREMENT OF DISP.         7.324E-03   AT NODE       1069   DOF  3
 LARGEST CORRECTION TO DISP.        2.147E-06   AT NODE       1069   DOF  1
          THE FORCE     EQUILIBRIUM RESPONSE WAS LINEAR IN THIS INCREMENT

 AVERAGE MOMENT                      0.00       TIME AVG. MOMENT       2.92    
                                                (FROM FORCE     FIELD)
 ALL MOMENT    RESIDUALS ARE ZERO
 LARGEST INCREMENT OF ROTATION      3.000E-04   AT NODE        202   DOF  5
 LARGEST CORRECTION TO ROTATION    -2.168E-19   AT NODE        202   DOF  5
          THERE IS ZERO MOMENT    EVERYWHERE

 ITERATION SUMMARY FOR THE INCREMENT:   1 TOTAL ITERATIONS, OF WHICH
   0 ARE SEVERE DISCONTINUITY ITERATIONS AND  1 ARE EQUILIBRIUM ITERATIONS.

 TIME INCREMENT COMPLETED  5.000E-02,  FRACTION OF STEP COMPLETED  0.300    
 STEP TIME COMPLETED       0.300    ,  TOTAL TIME COMPLETED        0.300    


  INCREMENT     7 STARTS. ATTEMPT NUMBER  1, TIME INCREMENT  5.000E-02

  NUMBER OF EQUATIONS =      1485     NUMBER OF RHS =    1
  NUMBER OF FLOATING PT. OPERATIONS =  1.11E+07

  USING THE DIRECT SOLVER WITH  42 PROCESSORS

     CHECK POINT   START OF SOLVER    

     CHECK POINT  END OF SOLVER       

       ELAPSED USER TIME (SEC)      =  0.27000    
       ELAPSED SYSTEM TIME (SEC)    =  8.00000E-02
       ELAPSED TOTAL CPU TIME (SEC) =  0.35000    
       ELAPSED WALLCLOCK TIME (SEC) =          0

               CONVERGENCE CHECKS FOR EQUILIBRIUM ITERATION     1


 AVERAGE FORCE                       3.76       TIME AVG. FORCE        2.71    
 ALL FORCE     RESIDUALS ARE ZERO
 LARGEST INCREMENT OF DISP.         7.324E-03   AT NODE       1069   DOF  3
 LARGEST CORRECTION TO DISP.        2.147E-06   AT NODE       1069   DOF  1
          THE FORCE     EQUILIBRIUM RESPONSE WAS LINEAR IN THIS INCREMENT

 AVERAGE MOMENT                      0.00       TIME AVG. MOMENT       3.15    
                                                (FROM FORCE     FIELD)
 ALL MOMENT    RESIDUALS ARE ZERO
 LARGEST INCREMENT OF ROTATION      3.000E-04   AT NODE        202   DOF  5
 LARGEST CORRECTION TO ROTATION     6.505E-19   AT NODE        202   DOF  5
          THERE IS ZERO MOMENT    EVERYWHERE

 ITERATION SUMMARY FOR THE INCREMENT:   1 TOTAL ITERATIONS, OF WHICH
   0 ARE SEVERE DISCONTINUITY ITERATIONS AND  1 ARE EQUILIBRIUM ITERATIONS.

 TIME INCREMENT COMPLETED  5.000E-02,  FRACTION OF STEP COMPLETED  0.350    
 STEP TIME COMPLETED       0.350    ,  TOTAL TIME COMPLETED        0.350    


  INCREMENT     8 STARTS. ATTEMPT NUMBER  1, TIME INCREMENT  5.000E-02

  NUMBER OF EQUATIONS =      1485     NUMBER OF RHS =    1
  NUMBER OF FLOATING PT. OPERATIONS =  1.11E+07

  USING THE DIRECT SOLVER WITH  42 PROCESSORS

     CHECK POINT   START OF SOLVER    

     CHECK POINT  END OF SOLVER       

       ELAPSED USER TIME (SEC)      =  0.27000    
       ELAPSED SYSTEM TIME (SEC)    =  0.12000    
       ELAPSED TOTAL CPU TIME (SEC) =  0.39000    
       ELAPSED WALLCLOCK TIME (SEC) =          0

               CONVERGENCE CHECKS FOR EQUILIBRIUM ITERATION     1


 AVERAGE FORCE                       4.06       TIME AVG. FORCE        2.88    
 ALL FORCE     RESIDUALS ARE ZERO
 LARGEST INCREMENT OF DISP.         7.324E-03   AT NODE       1069   DOF  3
 LARGEST CORRECTION TO DISP.        2.146E-06   AT NODE       1069   DOF  1
          THE FORCE     EQUILIBRIUM RESPONSE WAS LINEAR IN THIS INCREMENT

 AVERAGE MOMENT                      0.00       TIME AVG. MOMENT       3.37    
                                                (FROM FORCE     FIELD)
 ALL MOMENT    RESIDUALS ARE ZERO
 LARGEST INCREMENT OF ROTATION      3.000E-04   AT NODE        202   DOF  5
 LARGEST CORRECTION TO ROTATION    -8.674E-19   AT NODE        202   DOF  5
          THERE IS ZERO MOMENT    EVERYWHERE

 ITERATION SUMMARY FOR THE INCREMENT:   1 TOTAL ITERATIONS, OF WHICH
   0 ARE SEVERE DISCONTINUITY ITERATIONS AND  1 ARE EQUILIBRIUM ITERATIONS.

 TIME INCREMENT COMPLETED  5.000E-02,  FRACTION OF STEP COMPLETED  0.400    
 STEP TIME COMPLETED       0.400    ,  TOTAL TIME COMPLETED        0.400    


  INCREMENT     9 STARTS. ATTEMPT NUMBER  1, TIME INCREMENT  5.000E-02

  NUMBER OF EQUATIONS =      1485     NUMBER OF RHS =    1
  NUMBER OF FLOATING PT. OPERATIONS =  1.11E+07

  USING THE DIRECT SOLVER WITH  42 PROCESSORS

     CHECK POINT   START OF SOLVER    

     CHECK POINT  END OF SOLVER       

       ELAPSED USER TIME (SEC)      =  0.25000    
       ELAPSED SYSTEM TIME (SEC)    =  0.11000    
       ELAPSED TOTAL CPU TIME (SEC) =  0.36000    
       ELAPSED WALLCLOCK TIME (SEC) =          0

               CONVERGENCE CHECKS FOR EQUILIBRIUM ITERATION     1


 AVERAGE FORCE                       4.35       TIME AVG. FORCE        3.04    
 ALL FORCE     RESIDUALS ARE ZERO
 LARGEST INCREMENT OF DISP.         7.324E-03   AT NODE       1069   DOF  3
 LARGEST CORRECTION TO DISP.        2.146E-06   AT NODE       1069   DOF  1
          THE FORCE     EQUILIBRIUM RESPONSE WAS LINEAR IN THIS INCREMENT

 AVERAGE MOMENT                      0.00       TIME AVG. MOMENT       3.58    
                                                (FROM FORCE     FIELD)
 ALL MOMENT    RESIDUALS ARE ZERO
 LARGEST INCREMENT OF ROTATION      3.000E-04   AT NODE        202   DOF  5
 LARGEST CORRECTION TO ROTATION     4.337E-19   AT NODE        202   DOF  5
          THERE IS ZERO MOMENT    EVERYWHERE

 ITERATION SUMMARY FOR THE INCREMENT:   1 TOTAL ITERATIONS, OF WHICH
   0 ARE SEVERE DISCONTINUITY ITERATIONS AND  1 ARE EQUILIBRIUM ITERATIONS.

 TIME INCREMENT COMPLETED  5.000E-02,  FRACTION OF STEP COMPLETED  0.450    
 STEP TIME COMPLETED       0.450    ,  TOTAL TIME COMPLETED        0.450    


  INCREMENT    10 STARTS. ATTEMPT NUMBER  1, TIME INCREMENT  5.000E-02

  NUMBER OF EQUATIONS =      1485     NUMBER OF RHS =    1
  NUMBER OF FLOATING PT. OPERATIONS =  1.11E+07

  USING THE DIRECT SOLVER WITH  42 PROCESSORS

     CHECK POINT   START OF SOLVER    

     CHECK POINT  END OF SOLVER       

       ELAPSED USER TIME (SEC)      =  0.27000    
       ELAPSED SYSTEM TIME (SEC)    =  7.00000E-02
       ELAPSED TOTAL CPU TIME (SEC) =  0.34000    
       ELAPSED WALLCLOCK TIME (SEC) =          0

               CONVERGENCE CHECKS FOR EQUILIBRIUM ITERATION     1


 AVERAGE FORCE                       4.64       TIME AVG. FORCE        3.20    
 ALL FORCE     RESIDUALS ARE ZERO
 LARGEST INCREMENT OF DISP.         7.324E-03   AT NODE       1069   DOF  3
 LARGEST CORRECTION TO DISP.        2.146E-06   AT NODE       1069   DOF  1
          THE FORCE     EQUILIBRIUM RESPONSE WAS LINEAR IN THIS INCREMENT

 AVERAGE MOMENT                      0.00       TIME AVG. MOMENT       3.78    
                                                (FROM FORCE     FIELD)
 ALL MOMENT    RESIDUALS ARE ZERO
 LARGEST INCREMENT OF ROTATION      3.000E-04   AT NODE        202   DOF  5
 LARGEST CORRECTION TO ROTATION    -4.337E-19   AT NODE        202   DOF  4
          THERE IS ZERO MOMENT    EVERYWHERE

 ITERATION SUMMARY FOR THE INCREMENT:   1 TOTAL ITERATIONS, OF WHICH
   0 ARE SEVERE DISCONTINUITY ITERATIONS AND  1 ARE EQUILIBRIUM ITERATIONS.

 TIME INCREMENT COMPLETED  5.000E-02,  FRACTION OF STEP COMPLETED  0.500    
 STEP TIME COMPLETED       0.500    ,  TOTAL TIME COMPLETED        0.500    


  INCREMENT    11 STARTS. ATTEMPT NUMBER  1, TIME INCREMENT  5.000E-02

  NUMBER OF EQUATIONS =      1485     NUMBER OF RHS =    1
  NUMBER OF FLOATING PT. OPERATIONS =  1.11E+07

  USING THE DIRECT SOLVER WITH  42 PROCESSORS

     CHECK POINT   START OF SOLVER    

     CHECK POINT  END OF SOLVER       

       ELAPSED USER TIME (SEC)      =  0.26000    
       ELAPSED SYSTEM TIME (SEC)    =  8.00000E-02
       ELAPSED TOTAL CPU TIME (SEC) =  0.34000    
       ELAPSED WALLCLOCK TIME (SEC) =          0

               CONVERGENCE CHECKS FOR EQUILIBRIUM ITERATION     1


 AVERAGE FORCE                       4.93       TIME AVG. FORCE        3.36    
 ALL FORCE     RESIDUALS ARE ZERO
 LARGEST INCREMENT OF DISP.         7.324E-03   AT NODE       1069   DOF  3
 LARGEST CORRECTION TO DISP.        2.146E-06   AT NODE       1069   DOF  1
          THE FORCE     EQUILIBRIUM RESPONSE WAS LINEAR IN THIS INCREMENT

 AVERAGE MOMENT                      0.00       TIME AVG. MOMENT       3.98    
                                                (FROM FORCE     FIELD)
 ALL MOMENT    RESIDUALS ARE ZERO
 LARGEST INCREMENT OF ROTATION      3.000E-04   AT NODE        202   DOF  5
 LARGEST CORRECTION TO ROTATION     4.337E-19   AT NODE        202   DOF  4
          THERE IS ZERO MOMENT    EVERYWHERE

 ITERATION SUMMARY FOR THE INCREMENT:   1 TOTAL ITERATIONS, OF WHICH
   0 ARE SEVERE DISCONTINUITY ITERATIONS AND  1 ARE EQUILIBRIUM ITERATIONS.

 TIME INCREMENT COMPLETED  5.000E-02,  FRACTION OF STEP COMPLETED  0.550    
 STEP TIME COMPLETED       0.550    ,  TOTAL TIME COMPLETED        0.550    


  INCREMENT    12 STARTS. ATTEMPT NUMBER  1, TIME INCREMENT  5.000E-02

  NUMBER OF EQUATIONS =      1485     NUMBER OF RHS =    1
  NUMBER OF FLOATING PT. OPERATIONS =  1.11E+07

  USING THE DIRECT SOLVER WITH  42 PROCESSORS

     CHECK POINT   START OF SOLVER    

     CHECK POINT  END OF SOLVER       

       ELAPSED USER TIME (SEC)      =  0.25000    
       ELAPSED SYSTEM TIME (SEC)    =  9.00000E-02
       ELAPSED TOTAL CPU TIME (SEC) =  0.34000    
       ELAPSED WALLCLOCK TIME (SEC) =          0

               CONVERGENCE CHECKS FOR EQUILIBRIUM ITERATION     1


 AVERAGE FORCE                       5.21       TIME AVG. FORCE        3.51    
 ALL FORCE     RESIDUALS ARE ZERO
 LARGEST INCREMENT OF DISP.         7.324E-03   AT NODE       1069   DOF  3
 LARGEST CORRECTION TO DISP.        2.146E-06   AT NODE       1069   DOF  1
          THE FORCE     EQUILIBRIUM RESPONSE WAS LINEAR IN THIS INCREMENT

 AVERAGE MOMENT                      0.00       TIME AVG. MOMENT       4.18    
                                                (FROM FORCE     FIELD)
 ALL MOMENT    RESIDUALS ARE ZERO
 LARGEST INCREMENT OF ROTATION      3.000E-04   AT NODE        202   DOF  5
 LARGEST CORRECTION TO ROTATION     4.337E-19   AT NODE        202   DOF  5
          THERE IS ZERO MOMENT    EVERYWHERE

 ITERATION SUMMARY FOR THE INCREMENT:   1 TOTAL ITERATIONS, OF WHICH
   0 ARE SEVERE DISCONTINUITY ITERATIONS AND  1 ARE EQUILIBRIUM ITERATIONS.

 TIME INCREMENT COMPLETED  5.000E-02,  FRACTION OF STEP COMPLETED  0.600    
 STEP TIME COMPLETED       0.600    ,  TOTAL TIME COMPLETED        0.600    


  INCREMENT    13 STARTS. ATTEMPT NUMBER  1, TIME INCREMENT  5.000E-02

  NUMBER OF EQUATIONS =      1485     NUMBER OF RHS =    1
  NUMBER OF FLOATING PT. OPERATIONS =  1.11E+07

  USING THE DIRECT SOLVER WITH  42 PROCESSORS

     CHECK POINT   START OF SOLVER    

     CHECK POINT  END OF SOLVER       

       ELAPSED USER TIME (SEC)      =  0.26000    
       ELAPSED SYSTEM TIME (SEC)    =  0.10000    
       ELAPSED TOTAL CPU TIME (SEC) =  0.36000    
       ELAPSED WALLCLOCK TIME (SEC) =          0

               CONVERGENCE CHECKS FOR EQUILIBRIUM ITERATION     1


 AVERAGE FORCE                       5.50       TIME AVG. FORCE        3.67    
 ALL FORCE     RESIDUALS ARE ZERO
 LARGEST INCREMENT OF DISP.         7.324E-03   AT NODE       1069   DOF  3
 LARGEST CORRECTION TO DISP.        2.146E-06   AT NODE       1069   DOF  1
          THE FORCE     EQUILIBRIUM RESPONSE WAS LINEAR IN THIS INCREMENT

 AVERAGE MOMENT                      0.00       TIME AVG. MOMENT       4.37    
                                                (FROM FORCE     FIELD)
 ALL MOMENT    RESIDUALS ARE ZERO
 LARGEST INCREMENT OF ROTATION      3.000E-04   AT NODE        202   DOF  5
 LARGEST CORRECTION TO ROTATION     4.337E-19   AT NODE        202   DOF  4
          THERE IS ZERO MOMENT    EVERYWHERE

 ITERATION SUMMARY FOR THE INCREMENT:   1 TOTAL ITERATIONS, OF WHICH
   0 ARE SEVERE DISCONTINUITY ITERATIONS AND  1 ARE EQUILIBRIUM ITERATIONS.

 TIME INCREMENT COMPLETED  5.000E-02,  FRACTION OF STEP COMPLETED  0.650    
 STEP TIME COMPLETED       0.650    ,  TOTAL TIME COMPLETED        0.650    


  INCREMENT    14 STARTS. ATTEMPT NUMBER  1, TIME INCREMENT  5.000E-02

  NUMBER OF EQUATIONS =      1485     NUMBER OF RHS =    1
  NUMBER OF FLOATING PT. OPERATIONS =  1.11E+07

  USING THE DIRECT SOLVER WITH  42 PROCESSORS

     CHECK POINT   START OF SOLVER    

     CHECK POINT  END OF SOLVER       

       ELAPSED USER TIME (SEC)      =  0.69000    
       ELAPSED SYSTEM TIME (SEC)    =  3.00000E-02
       ELAPSED TOTAL CPU TIME (SEC) =  0.72000    
       ELAPSED WALLCLOCK TIME (SEC) =          0

               CONVERGENCE CHECKS FOR EQUILIBRIUM ITERATION     1


 AVERAGE FORCE                       5.77       TIME AVG. FORCE        3.82    
 ALL FORCE     RESIDUALS ARE ZERO
 LARGEST INCREMENT OF DISP.         7.324E-03   AT NODE       1069   DOF  3
 LARGEST CORRECTION TO DISP.        2.146E-06   AT NODE       1069   DOF  1
          THE FORCE     EQUILIBRIUM RESPONSE WAS LINEAR IN THIS INCREMENT

 AVERAGE MOMENT                      0.00       TIME AVG. MOMENT       4.56    
                                                (FROM FORCE     FIELD)
 ALL MOMENT    RESIDUALS ARE ZERO
 LARGEST INCREMENT OF ROTATION      3.000E-04   AT NODE        202   DOF  5
 LARGEST CORRECTION TO ROTATION    -8.674E-19   AT NODE        202   DOF  4
          THERE IS ZERO MOMENT    EVERYWHERE

 ITERATION SUMMARY FOR THE INCREMENT:   1 TOTAL ITERATIONS, OF WHICH
   0 ARE SEVERE DISCONTINUITY ITERATIONS AND  1 ARE EQUILIBRIUM ITERATIONS.

 TIME INCREMENT COMPLETED  5.000E-02,  FRACTION OF STEP COMPLETED  0.700    
 STEP TIME COMPLETED       0.700    ,  TOTAL TIME COMPLETED        0.700    


  INCREMENT    15 STARTS. ATTEMPT NUMBER  1, TIME INCREMENT  5.000E-02

  NUMBER OF EQUATIONS =      1485     NUMBER OF RHS =    1
  NUMBER OF FLOATING PT. OPERATIONS =  1.11E+07

  USING THE DIRECT SOLVER WITH  42 PROCESSORS

     CHECK POINT   START OF SOLVER    

     CHECK POINT  END OF SOLVER       

       ELAPSED USER TIME (SEC)      =  0.32000    
       ELAPSED SYSTEM TIME (SEC)    =  5.00000E-02
       ELAPSED TOTAL CPU TIME (SEC) =  0.37000    
       ELAPSED WALLCLOCK TIME (SEC) =          0

               CONVERGENCE CHECKS FOR EQUILIBRIUM ITERATION     1


 AVERAGE FORCE                       6.05       TIME AVG. FORCE        3.96    
 ALL FORCE     RESIDUALS ARE ZERO
 LARGEST INCREMENT OF DISP.         7.324E-03   AT NODE       1069   DOF  3
 LARGEST CORRECTION TO DISP.        2.146E-06   AT NODE       1069   DOF  1
          THE FORCE     EQUILIBRIUM RESPONSE WAS LINEAR IN THIS INCREMENT

 AVERAGE MOMENT                      0.00       TIME AVG. MOMENT       4.75    
                                                (FROM FORCE     FIELD)
 ALL MOMENT    RESIDUALS ARE ZERO
 LARGEST INCREMENT OF ROTATION      3.000E-04   AT NODE        202   DOF  5
 LARGEST CORRECTION TO ROTATION    -4.337E-19   AT NODE        202   DOF  5
          THERE IS ZERO MOMENT    EVERYWHERE

 ITERATION SUMMARY FOR THE INCREMENT:   1 TOTAL ITERATIONS, OF WHICH
   0 ARE SEVERE DISCONTINUITY ITERATIONS AND  1 ARE EQUILIBRIUM ITERATIONS.

 TIME INCREMENT COMPLETED  5.000E-02,  FRACTION OF STEP COMPLETED  0.750    
 STEP TIME COMPLETED       0.750    ,  TOTAL TIME COMPLETED        0.750    


  INCREMENT    16 STARTS. ATTEMPT NUMBER  1, TIME INCREMENT  5.000E-02

  NUMBER OF EQUATIONS =      1485     NUMBER OF RHS =    1
  NUMBER OF FLOATING PT. OPERATIONS =  1.11E+07

  USING THE DIRECT SOLVER WITH  42 PROCESSORS

     CHECK POINT   START OF SOLVER    

     CHECK POINT  END OF SOLVER       

       ELAPSED USER TIME (SEC)      =  0.28000    
       ELAPSED SYSTEM TIME (SEC)    =  4.00000E-02
       ELAPSED TOTAL CPU TIME (SEC) =  0.32000    
       ELAPSED WALLCLOCK TIME (SEC) =          0

               CONVERGENCE CHECKS FOR EQUILIBRIUM ITERATION     1


 AVERAGE FORCE                       6.32       TIME AVG. FORCE        4.11    
 ALL FORCE     RESIDUALS ARE ZERO
 LARGEST INCREMENT OF DISP.         7.324E-03   AT NODE       1069   DOF  3
 LARGEST CORRECTION TO DISP.        2.146E-06   AT NODE       1069   DOF  1
          THE FORCE     EQUILIBRIUM RESPONSE WAS LINEAR IN THIS INCREMENT

 AVERAGE MOMENT                      0.00       TIME AVG. MOMENT       4.93    
                                                (FROM FORCE     FIELD)
 ALL MOMENT    RESIDUALS ARE ZERO
 LARGEST INCREMENT OF ROTATION      3.000E-04   AT NODE        202   DOF  5
 LARGEST CORRECTION TO ROTATION    -2.741E-31   AT NODE        202   DOF  5
          THERE IS ZERO MOMENT    EVERYWHERE

 ITERATION SUMMARY FOR THE INCREMENT:   1 TOTAL ITERATIONS, OF WHICH
   0 ARE SEVERE DISCONTINUITY ITERATIONS AND  1 ARE EQUILIBRIUM ITERATIONS.

 TIME INCREMENT COMPLETED  5.000E-02,  FRACTION OF STEP COMPLETED  0.800    
 STEP TIME COMPLETED       0.800    ,  TOTAL TIME COMPLETED        0.800    


  INCREMENT    17 STARTS. ATTEMPT NUMBER  1, TIME INCREMENT  5.000E-02

  NUMBER OF EQUATIONS =      1485     NUMBER OF RHS =    1
  NUMBER OF FLOATING PT. OPERATIONS =  1.11E+07

  USING THE DIRECT SOLVER WITH  42 PROCESSORS

     CHECK POINT   START OF SOLVER    

     CHECK POINT  END OF SOLVER       

       ELAPSED USER TIME (SEC)      =  0.23000    
       ELAPSED SYSTEM TIME (SEC)    =  0.13000    
       ELAPSED TOTAL CPU TIME (SEC) =  0.36000    
       ELAPSED WALLCLOCK TIME (SEC) =          0

               CONVERGENCE CHECKS FOR EQUILIBRIUM ITERATION     1


 AVERAGE FORCE                       6.58       TIME AVG. FORCE        4.26    
 ALL FORCE     RESIDUALS ARE ZERO
 LARGEST INCREMENT OF DISP.         7.324E-03   AT NODE       1069   DOF  3
 LARGEST CORRECTION TO DISP.        2.146E-06   AT NODE       1069   DOF  1
          THE FORCE     EQUILIBRIUM RESPONSE WAS LINEAR IN THIS INCREMENT

 AVERAGE MOMENT                      0.00       TIME AVG. MOMENT       5.11    
                                                (FROM FORCE     FIELD)
 ALL MOMENT    RESIDUALS ARE ZERO
 LARGEST INCREMENT OF ROTATION      3.000E-04   AT NODE        202   DOF  5
 LARGEST CORRECTION TO ROTATION     8.674E-19   AT NODE        202   DOF  5
          THERE IS ZERO MOMENT    EVERYWHERE

 ITERATION SUMMARY FOR THE INCREMENT:   1 TOTAL ITERATIONS, OF WHICH
   0 ARE SEVERE DISCONTINUITY ITERATIONS AND  1 ARE EQUILIBRIUM ITERATIONS.

 TIME INCREMENT COMPLETED  5.000E-02,  FRACTION OF STEP COMPLETED  0.850    
 STEP TIME COMPLETED       0.850    ,  TOTAL TIME COMPLETED        0.850    


  INCREMENT    18 STARTS. ATTEMPT NUMBER  1, TIME INCREMENT  5.000E-02

  NUMBER OF EQUATIONS =      1485     NUMBER OF RHS =    1
  NUMBER OF FLOATING PT. OPERATIONS =  1.11E+07

  USING THE DIRECT SOLVER WITH  42 PROCESSORS

     CHECK POINT   START OF SOLVER    

     CHECK POINT  END OF SOLVER       

       ELAPSED USER TIME (SEC)      =  0.26000    
       ELAPSED SYSTEM TIME (SEC)    =  6.00000E-02
       ELAPSED TOTAL CPU TIME (SEC) =  0.32000    
       ELAPSED WALLCLOCK TIME (SEC) =          0

               CONVERGENCE CHECKS FOR EQUILIBRIUM ITERATION     1


 AVERAGE FORCE                       6.85       TIME AVG. FORCE        4.40    
 ALL FORCE     RESIDUALS ARE ZERO
 LARGEST INCREMENT OF DISP.         7.324E-03   AT NODE       1069   DOF  3
 LARGEST CORRECTION TO DISP.        2.146E-06   AT NODE       1069   DOF  1
          THE FORCE     EQUILIBRIUM RESPONSE WAS LINEAR IN THIS INCREMENT

 AVERAGE MOMENT                      0.00       TIME AVG. MOMENT       5.29    
                                                (FROM FORCE     FIELD)
 ALL MOMENT    RESIDUALS ARE ZERO
 LARGEST INCREMENT OF ROTATION      3.000E-04   AT NODE        202   DOF  5
 LARGEST CORRECTION TO ROTATION     1.301E-18   AT NODE        202   DOF  4
          THERE IS ZERO MOMENT    EVERYWHERE

 ITERATION SUMMARY FOR THE INCREMENT:   1 TOTAL ITERATIONS, OF WHICH
   0 ARE SEVERE DISCONTINUITY ITERATIONS AND  1 ARE EQUILIBRIUM ITERATIONS.

 TIME INCREMENT COMPLETED  5.000E-02,  FRACTION OF STEP COMPLETED  0.900    
 STEP TIME COMPLETED       0.900    ,  TOTAL TIME COMPLETED        0.900    


  INCREMENT    19 STARTS. ATTEMPT NUMBER  1, TIME INCREMENT  5.000E-02

  NUMBER OF EQUATIONS =      1485     NUMBER OF RHS =    1
  NUMBER OF FLOATING PT. OPERATIONS =  1.11E+07

  USING THE DIRECT SOLVER WITH  42 PROCESSORS

     CHECK POINT   START OF SOLVER    

     CHECK POINT  END OF SOLVER       

       ELAPSED USER TIME (SEC)      =  0.32000    
       ELAPSED SYSTEM TIME (SEC)    =  7.00000E-02
       ELAPSED TOTAL CPU TIME (SEC) =  0.39000    
       ELAPSED WALLCLOCK TIME (SEC) =          0

               CONVERGENCE CHECKS FOR EQUILIBRIUM ITERATION     1


 AVERAGE FORCE                       7.11       TIME AVG. FORCE        4.54    
 ALL FORCE     RESIDUALS ARE ZERO
 LARGEST INCREMENT OF DISP.         7.323E-03   AT NODE       1069   DOF  3
 LARGEST CORRECTION TO DISP.        2.146E-06   AT NODE       1069   DOF  1
          THE FORCE     EQUILIBRIUM RESPONSE WAS LINEAR IN THIS INCREMENT

 AVERAGE MOMENT                      0.00       TIME AVG. MOMENT       5.47    
                                                (FROM FORCE     FIELD)
 ALL MOMENT    RESIDUALS ARE ZERO
 LARGEST INCREMENT OF ROTATION      3.000E-04   AT NODE        202   DOF  5
 LARGEST CORRECTION TO ROTATION    -9.216E-19   AT NODE        202   DOF  5
          THERE IS ZERO MOMENT    EVERYWHERE

 ITERATION SUMMARY FOR THE INCREMENT:   1 TOTAL ITERATIONS, OF WHICH
   0 ARE SEVERE DISCONTINUITY ITERATIONS AND  1 ARE EQUILIBRIUM ITERATIONS.

 TIME INCREMENT COMPLETED  5.000E-02,  FRACTION OF STEP COMPLETED  0.950    
 STEP TIME COMPLETED       0.950    ,  TOTAL TIME COMPLETED        0.950    


  INCREMENT    20 STARTS. ATTEMPT NUMBER  1, TIME INCREMENT  5.000E-02

  NUMBER OF EQUATIONS =      1485     NUMBER OF RHS =    1
  NUMBER OF FLOATING PT. OPERATIONS =  1.11E+07

  USING THE DIRECT SOLVER WITH  42 PROCESSORS

     CHECK POINT   START OF SOLVER    

     CHECK POINT  END OF SOLVER       

       ELAPSED USER TIME (SEC)      =  0.32000    
       ELAPSED SYSTEM TIME (SEC)    =  4.00000E-02
       ELAPSED TOTAL CPU TIME (SEC) =  0.36000    
       ELAPSED WALLCLOCK TIME (SEC) =          0

               CONVERGENCE CHECKS FOR EQUILIBRIUM ITERATION     1


 AVERAGE FORCE                       7.37       TIME AVG. FORCE        4.68    
 ALL FORCE     RESIDUALS ARE ZERO
 LARGEST INCREMENT OF DISP.         7.323E-03   AT NODE       1069   DOF  3
 LARGEST CORRECTION TO DISP.        2.146E-06   AT NODE       1069   DOF  1
          THE FORCE     EQUILIBRIUM RESPONSE WAS LINEAR IN THIS INCREMENT

 AVERAGE MOMENT                      0.00       TIME AVG. MOMENT       5.65    
                                                (FROM FORCE     FIELD)
 ALL MOMENT    RESIDUALS ARE ZERO
 LARGEST INCREMENT OF ROTATION      3.000E-04   AT NODE        202   DOF  5
 LARGEST CORRECTION TO ROTATION     2.711E-19   AT NODE        202   DOF  4
          THERE IS ZERO MOMENT    EVERYWHERE

 ITERATION SUMMARY FOR THE INCREMENT:   1 TOTAL ITERATIONS, OF WHICH
   0 ARE SEVERE DISCONTINUITY ITERATIONS AND  1 ARE EQUILIBRIUM ITERATIONS.

 TIME INCREMENT COMPLETED  5.000E-02,  FRACTION OF STEP COMPLETED   1.00    
 STEP TIME COMPLETED        1.00    ,  TOTAL TIME COMPLETED         1.00    
1

   Abaqus 2021                                  Date 22-Feb-2023   Time 18:29:37
   For use by UNIVERSITAET BERN under license from Dassault Systemes or its subsidiary.

                                                                                 
                                                                                 
 STEP    2     INCREMENT     1     STEP TIME    0.00    


                        S T E P       2     S T A T I C   A N A L Y S I S


                                                                                          

     AUTOMATIC TIME CONTROL WITH -
          A SUGGESTED INITIAL TIME INCREMENT OF                5.000E-02
          AND A TOTAL TIME PERIOD OF                            1.00    
          THE MINIMUM TIME INCREMENT ALLOWED IS                5.000E-05
          THE MAXIMUM TIME INCREMENT ALLOWED IS                5.000E-02

     LINEAR EQUATION SOLVER TYPE         DIRECT SPARSE

 CONVERGENCE TOLERANCE PARAMETERS FOR FORCE    
     CRITERION FOR RESIDUAL FORCE     FOR A NONLINEAR PROBLEM          5.000E-03
     CRITERION FOR DISP.    CORRECTION IN A NONLINEAR PROBLEM          1.000E-02
     INIT. VALUE OF TIME AVG. FORCE     IS TIME AVG. FORCE     IN PREVIOUS STEP
     AVERAGE FORCE     IS TIME AVERAGE FORCE    
     ALTERNATE CRIT. FOR RESIDUAL FORCE     FOR A NONLINEAR PROBLEM    2.000E-02
     CRITERION FOR ZERO FORCE     RELATIVE TO TIME AVRG. FORCE         1.000E-05
     CRITERION FOR RESIDUAL FORCE     WHEN THERE IS ZERO FLUX          1.000E-05
     CRITERION FOR DISP.    CORRECTION WHEN THERE IS ZERO FLUX         1.000E-03
     CRITERION FOR RESIDUAL FORCE     FOR A LINEAR INCREMENT           1.000E-08
     FIELD CONVERSION RATIO                                             1.00    
     CRITERION FOR ZERO FORCE     REL. TO TIME AVRG. MAX. FORCE        1.000E-05
     CRITERION FOR ZERO DISP.    RELATIVE TO CHARACTERISTIC LENGTH     1.000E-08

 CONVERGENCE TOLERANCE PARAMETERS FOR MOMENT   
     CRITERION FOR RESIDUAL MOMENT    FOR A NONLINEAR PROBLEM          5.000E-03
     CRITERION FOR ROTATION CORRECTION IN A NONLINEAR PROBLEM          1.000E-02
     INIT. VALUE OF TIME AVG. MOMENT    IS TIME AVG. MOMENT    IN PREVIOUS STEP
     AVERAGE MOMENT    IS TIME AVERAGE MOMENT   
     ALTERNATE CRIT. FOR RESIDUAL MOMENT    FOR A NONLINEAR PROBLEM    2.000E-02
     CRITERION FOR ZERO MOMENT    RELATIVE TO TIME AVRG. MOMENT        1.000E-05
     CRITERION FOR RESIDUAL MOMENT    WHEN THERE IS ZERO FLUX          1.000E-05
     CRITERION FOR ROTATION CORRECTION WHEN THERE IS ZERO FLUX         1.000E-03
     CRITERION FOR RESIDUAL MOMENT    FOR A LINEAR INCREMENT           1.000E-08
     FIELD CONVERSION RATIO                                             1.00    
     CRITERION FOR ZERO MOMENT    REL. TO TIME AVRG. MAX. MOMENT       1.000E-05

     VOLUMETRIC STRAIN COMPATIBILITY TOLERANCE FOR HYBRID SOLIDS       1.000E-05
     AXIAL STRAIN COMPATIBILITY TOLERANCE FOR HYBRID BEAMS             1.000E-05
     TRANS. SHEAR STRAIN COMPATIBILITY TOLERANCE FOR HYBRID BEAMS      1.000E-05
     SOFT CONTACT CONSTRAINT COMPATIBILITY TOLERANCE FOR P>P0          5.000E-03
     SOFT CONTACT CONSTRAINT COMPATIBILITY TOLERANCE FOR P=0.0         0.100    
     CONTACT FORCE ERROR TOLERANCE FOR CONVERT SDI=YES                 1.00    
     DISPLACEMENT COMPATIBILITY TOLERANCE FOR DCOUP ELEMENTS           1.000E-05
     ROTATION COMPATIBILITY TOLERANCE FOR DCOUP ELEMENTS               1.000E-05

 EQUILIBRIUM WILL BE CHECKED FOR SEVERE DISCONTINUITY ITERATIONS

 TIME INCREMENTATION CONTROL PARAMETERS:
     FIRST EQUILIBRIUM ITERATION FOR CONSECUTIVE DIVERGENCE CHECK              4
     EQUILIBRIUM ITERATION AT WHICH LOG. CONVERGENCE RATE CHECK BEGINS         8
     EQUILIBRIUM ITERATION AFTER WHICH ALTERNATE RESIDUAL IS USED              9
     MAXIMUM EQUILIBRIUM ITERATIONS ALLOWED                                   16
     EQUILIBRIUM ITERATION COUNT FOR CUT-BACK IN NEXT INCREMENT               10
     MAXIMUM EQUILIB. ITERS IN TWO INCREMENTS FOR TIME INCREMENT INCREASE      4
     MAXIMUM ITERATIONS FOR SEVERE DISCONTINUITIES                            50
     MAXIMUM ATTEMPTS ALLOWED IN AN INCREMENT                                  5
     MAXIMUM DISCON. ITERS IN TWO INCREMENTS FOR TIME INCREMENT INCREASE      50
     MAXIMUM CONTACT AUGMENTATIONS FOR *SURFACE BEHAVIOR,AUGMENTED LAGRANGE   50
     CUT-BACK FACTOR AFTER DIVERGENCE                                 0.2500    
     CUT-BACK FACTOR FOR TOO SLOW CONVERGENCE                         0.5000    
     CUT-BACK FACTOR AFTER TOO MANY EQUILIBRIUM ITERATIONS            0.7500    
     CUT-BACK FACTOR AFTER TOO MANY SEVERE DISCONTINUITY ITERATIONS   0.2500    
     CUT-BACK FACTOR AFTER PROBLEMS IN ELEMENT ASSEMBLY               0.2500    
     INCREASE FACTOR AFTER TWO INCREMENTS THAT CONVERGE QUICKLY        1.500    
     MAX. TIME INCREMENT INCREASE FACTOR ALLOWED                       1.500    
     MAX. TIME INCREMENT INCREASE FACTOR ALLOWED (DYNAMICS)            1.250    
     MAX. TIME INCREMENT INCREASE FACTOR ALLOWED (DIFFUSION)           2.000    
     MINIMUM TIME INCREMENT RATIO FOR EXTRAPOLATION TO OCCUR          0.1000    
     MAX. RATIO OF TIME INCREMENT TO STABILITY LIMIT                   1.000    
     FRACTION OF STABILITY LIMIT FOR NEW TIME INCREMENT               0.9500    
     TIME INCREMENT INCREASE FACTOR BEFORE A TIME POINT                1.000    
     GLOBAL STABILIZATION CONTROL IS NOT USED

          PRINT OF INCREMENT NUMBER, TIME, ETC., EVERY    1  INCREMENTS

     THE MAXIMUM NUMBER OF INCREMENTS IN THIS STEP IS                    1000

          LARGE DISPLACEMENT THEORY WILL BE USED

          UNSYMMETRIC MATRIX STORAGE AND SOLUTION WILL BE USED

     LINEAR EXTRAPOLATION WILL BE USED

     CHARACTERISTIC ELEMENT LENGTH      1.24    

     DETAILS REGARDING ACTUAL SOLUTION WAVEFRONT REQUESTED

     DETAILED OUTPUT OF DIAGNOSTICS TO DATABASE REQUESTED

     PRINT OF INCREMENT NUMBER, TIME, ETC., TO THE MESSAGE FILE EVERY     1  INCREMENTS

     ELEMENT OPERATIONS WILL BE CARRIED OUT IN PARALLEL USING  42 PROCESSORS

     COLLECTING STEP CONSTRAINT INFORMATION FOR OVERCONSTRAINT CHECKS


  INCREMENT     1 STARTS. ATTEMPT NUMBER  1, TIME INCREMENT  5.000E-02
 
     INITIAL ELEMENT LOAD BALANCE
            PROCESS    1   THREAD     NUMBER OF ELEMENTS
                              1            10
                              2            10
                              3            10
                              4            10
                              5            10
                              6            10
                              7            10
                              8            10
                              9            10
                             10            10
                             11            10
                             12            10
                             13            10
                             14            10
                             15            10
                             16            20
                             17            10
                             18            10
                             19            10
                             20            10
                             21            10
                             22            10
                             23            10
                             24            10
                             25            10
                             26            10
                             27            10
                             28            10
                             29            10
                             30            10
                             31            10
                             32            10
                             33            10
                             34            10
                             35            10
                             36            14
                             37            10
                             38            20
                             39            10
                             40            10
                             41            10
                             42            10

  NUMBER OF EQUATIONS =      1485     NUMBER OF RHS =    1
  NUMBER OF FLOATING PT. OPERATIONS =  1.11E+07

  USING THE DIRECT SOLVER WITH  42 PROCESSORS

     CHECK POINT   START OF SOLVER    

     CHECK POINT  END OF SOLVER       

       ELAPSED USER TIME (SEC)      =  0.32000    
       ELAPSED SYSTEM TIME (SEC)    =  0.12000    
       ELAPSED TOTAL CPU TIME (SEC) =  0.44000    
       ELAPSED WALLCLOCK TIME (SEC) =          0

               CONVERGENCE CHECKS FOR EQUILIBRIUM ITERATION     1


 AVERAGE FORCE                       6.96       TIME AVG. FORCE        6.96    
 ALL FORCE     RESIDUALS ARE ZERO
 LARGEST INCREMENT OF DISP.         3.258E-03   AT NODE        959   DOF  3
 LARGEST CORRECTION TO DISP.        3.258E-03   AT NODE        959   DOF  3
          THE FORCE     EQUILIBRIUM RESPONSE WAS LINEAR IN THIS INCREMENT

 AVERAGE MOMENT                      0.00       TIME AVG. MOMENT       8.66    
                                                (FROM FORCE     FIELD)
 ALL MOMENT    RESIDUALS ARE ZERO
 LARGEST INCREMENT OF ROTATION      1.500E-04   AT NODE        202   DOF  6
 LARGEST CORRECTION TO ROTATION     1.500E-04   AT NODE        202   DOF  6
          THERE IS ZERO MOMENT    EVERYWHERE

 ITERATION SUMMARY FOR THE INCREMENT:   1 TOTAL ITERATIONS, OF WHICH
   0 ARE SEVERE DISCONTINUITY ITERATIONS AND  1 ARE EQUILIBRIUM ITERATIONS.

 TIME INCREMENT COMPLETED  5.000E-02,  FRACTION OF STEP COMPLETED  5.000E-02
 STEP TIME COMPLETED       5.000E-02,  TOTAL TIME COMPLETED         1.05    


  INCREMENT     2 STARTS. ATTEMPT NUMBER  1, TIME INCREMENT  5.000E-02

  NUMBER OF EQUATIONS =      1485     NUMBER OF RHS =    1
  NUMBER OF FLOATING PT. OPERATIONS =  1.11E+07

  USING THE DIRECT SOLVER WITH  42 PROCESSORS

     CHECK POINT   START OF SOLVER    

     CHECK POINT  END OF SOLVER       

       ELAPSED USER TIME (SEC)      =  0.24000    
       ELAPSED SYSTEM TIME (SEC)    =  0.11000    
       ELAPSED TOTAL CPU TIME (SEC) =  0.35000    
       ELAPSED WALLCLOCK TIME (SEC) =          0

               CONVERGENCE CHECKS FOR EQUILIBRIUM ITERATION     1


 AVERAGE FORCE                       6.68       TIME AVG. FORCE        6.82    
 ALL FORCE     RESIDUALS ARE ZERO
 LARGEST INCREMENT OF DISP.         3.258E-03   AT NODE        959   DOF  3
 LARGEST CORRECTION TO DISP.       -9.069E-07   AT NODE        959   DOF  1
          THE FORCE     EQUILIBRIUM RESPONSE WAS LINEAR IN THIS INCREMENT

 AVERAGE MOMENT                      0.00       TIME AVG. MOMENT       8.66    
                                                (FROM FORCE     FIELD)
 ALL MOMENT    RESIDUALS ARE ZERO
 LARGEST INCREMENT OF ROTATION      1.500E-04   AT NODE        202   DOF  6
 LARGEST CORRECTION TO ROTATION     6.776E-21   AT NODE        202   DOF  4
          THERE IS ZERO MOMENT    EVERYWHERE

 ITERATION SUMMARY FOR THE INCREMENT:   1 TOTAL ITERATIONS, OF WHICH
   0 ARE SEVERE DISCONTINUITY ITERATIONS AND  1 ARE EQUILIBRIUM ITERATIONS.

 TIME INCREMENT COMPLETED  5.000E-02,  FRACTION OF STEP COMPLETED  0.100    
 STEP TIME COMPLETED       0.100    ,  TOTAL TIME COMPLETED         1.10    


  INCREMENT     3 STARTS. ATTEMPT NUMBER  1, TIME INCREMENT  5.000E-02

  NUMBER OF EQUATIONS =      1485     NUMBER OF RHS =    1
  NUMBER OF FLOATING PT. OPERATIONS =  1.11E+07

  USING THE DIRECT SOLVER WITH  42 PROCESSORS

     CHECK POINT   START OF SOLVER    

     CHECK POINT  END OF SOLVER       

       ELAPSED USER TIME (SEC)      =  0.24000    
       ELAPSED SYSTEM TIME (SEC)    =  0.10000    
       ELAPSED TOTAL CPU TIME (SEC) =  0.34000    
       ELAPSED WALLCLOCK TIME (SEC) =          0

               CONVERGENCE CHECKS FOR EQUILIBRIUM ITERATION     1


 AVERAGE FORCE                       6.43       TIME AVG. FORCE        6.69    
 ALL FORCE     RESIDUALS ARE ZERO
 LARGEST INCREMENT OF DISP.         3.258E-03   AT NODE        959   DOF  3
 LARGEST CORRECTION TO DISP.       -9.069E-07   AT NODE        959   DOF  1
          THE FORCE     EQUILIBRIUM RESPONSE WAS LINEAR IN THIS INCREMENT

 AVERAGE MOMENT                      0.00       TIME AVG. MOMENT       8.48    
                                                (FROM FORCE     FIELD)
 ALL MOMENT    RESIDUALS ARE ZERO
 LARGEST INCREMENT OF ROTATION     -1.500E-04   AT NODE        202   DOF  5
 LARGEST CORRECTION TO ROTATION     8.674E-19   AT NODE        202   DOF  4
          THERE IS ZERO MOMENT    EVERYWHERE

 ITERATION SUMMARY FOR THE INCREMENT:   1 TOTAL ITERATIONS, OF WHICH
   0 ARE SEVERE DISCONTINUITY ITERATIONS AND  1 ARE EQUILIBRIUM ITERATIONS.

 TIME INCREMENT COMPLETED  5.000E-02,  FRACTION OF STEP COMPLETED  0.150    
 STEP TIME COMPLETED       0.150    ,  TOTAL TIME COMPLETED         1.15    


  INCREMENT     4 STARTS. ATTEMPT NUMBER  1, TIME INCREMENT  5.000E-02

  NUMBER OF EQUATIONS =      1485     NUMBER OF RHS =    1
  NUMBER OF FLOATING PT. OPERATIONS =  1.11E+07

  USING THE DIRECT SOLVER WITH  42 PROCESSORS

     CHECK POINT   START OF SOLVER    

     CHECK POINT  END OF SOLVER       

       ELAPSED USER TIME (SEC)      =  0.31000    
       ELAPSED SYSTEM TIME (SEC)    =  6.00000E-02
       ELAPSED TOTAL CPU TIME (SEC) =  0.37000    
       ELAPSED WALLCLOCK TIME (SEC) =          0

               CONVERGENCE CHECKS FOR EQUILIBRIUM ITERATION     1


 AVERAGE FORCE                       6.30       TIME AVG. FORCE        6.59    
 ALL FORCE     RESIDUALS ARE ZERO
 LARGEST INCREMENT OF DISP.         3.258E-03   AT NODE        959   DOF  3
 LARGEST CORRECTION TO DISP.       -9.068E-07   AT NODE        959   DOF  1
          THE FORCE     EQUILIBRIUM RESPONSE WAS LINEAR IN THIS INCREMENT

 AVERAGE MOMENT                      0.00       TIME AVG. MOMENT       8.32    
                                                (FROM FORCE     FIELD)
 ALL MOMENT    RESIDUALS ARE ZERO
 LARGEST INCREMENT OF ROTATION     -1.500E-04   AT NODE        202   DOF  5
 LARGEST CORRECTION TO ROTATION    -1.735E-18   AT NODE        202   DOF  4
          THERE IS ZERO MOMENT    EVERYWHERE

 ITERATION SUMMARY FOR THE INCREMENT:   1 TOTAL ITERATIONS, OF WHICH
   0 ARE SEVERE DISCONTINUITY ITERATIONS AND  1 ARE EQUILIBRIUM ITERATIONS.

 TIME INCREMENT COMPLETED  5.000E-02,  FRACTION OF STEP COMPLETED  0.200    
 STEP TIME COMPLETED       0.200    ,  TOTAL TIME COMPLETED         1.20    


  INCREMENT     5 STARTS. ATTEMPT NUMBER  1, TIME INCREMENT  5.000E-02

  NUMBER OF EQUATIONS =      1485     NUMBER OF RHS =    1
  NUMBER OF FLOATING PT. OPERATIONS =  1.11E+07

  USING THE DIRECT SOLVER WITH  42 PROCESSORS

     CHECK POINT   START OF SOLVER    

     CHECK POINT  END OF SOLVER       

       ELAPSED USER TIME (SEC)      =  0.29000    
       ELAPSED SYSTEM TIME (SEC)    =  7.00000E-02
       ELAPSED TOTAL CPU TIME (SEC) =  0.36000    
       ELAPSED WALLCLOCK TIME (SEC) =          0

               CONVERGENCE CHECKS FOR EQUILIBRIUM ITERATION     1


 AVERAGE FORCE                       6.26       TIME AVG. FORCE        6.53    
 ALL FORCE     RESIDUALS ARE ZERO
 LARGEST INCREMENT OF DISP.         3.258E-03   AT NODE        959   DOF  3
 LARGEST CORRECTION TO DISP.       -9.068E-07   AT NODE        959   DOF  1
          THE FORCE     EQUILIBRIUM RESPONSE WAS LINEAR IN THIS INCREMENT

 AVERAGE MOMENT                      0.00       TIME AVG. MOMENT       8.20    
                                                (FROM FORCE     FIELD)
 ALL MOMENT    RESIDUALS ARE ZERO
 LARGEST INCREMENT OF ROTATION      1.500E-04   AT NODE        202   DOF  6
 LARGEST CORRECTION TO ROTATION     8.741E-19   AT NODE        202   DOF  4
          THERE IS ZERO MOMENT    EVERYWHERE

 ITERATION SUMMARY FOR THE INCREMENT:   1 TOTAL ITERATIONS, OF WHICH
   0 ARE SEVERE DISCONTINUITY ITERATIONS AND  1 ARE EQUILIBRIUM ITERATIONS.

 TIME INCREMENT COMPLETED  5.000E-02,  FRACTION OF STEP COMPLETED  0.250    
 STEP TIME COMPLETED       0.250    ,  TOTAL TIME COMPLETED         1.25    


  INCREMENT     6 STARTS. ATTEMPT NUMBER  1, TIME INCREMENT  5.000E-02

  NUMBER OF EQUATIONS =      1485     NUMBER OF RHS =    1
  NUMBER OF FLOATING PT. OPERATIONS =  1.11E+07

  USING THE DIRECT SOLVER WITH  42 PROCESSORS

     CHECK POINT   START OF SOLVER    

     CHECK POINT  END OF SOLVER       

       ELAPSED USER TIME (SEC)      =  0.42000    
       ELAPSED SYSTEM TIME (SEC)    =  5.00000E-02
       ELAPSED TOTAL CPU TIME (SEC) =  0.47000    
       ELAPSED WALLCLOCK TIME (SEC) =          0

               CONVERGENCE CHECKS FOR EQUILIBRIUM ITERATION     1


 AVERAGE FORCE                       6.24       TIME AVG. FORCE        6.48    
 ALL FORCE     RESIDUALS ARE ZERO
 LARGEST INCREMENT OF DISP.         3.258E-03   AT NODE        959   DOF  3
 LARGEST CORRECTION TO DISP.       -9.067E-07   AT NODE        959   DOF  1
          THE FORCE     EQUILIBRIUM RESPONSE WAS LINEAR IN THIS INCREMENT

 AVERAGE MOMENT                      0.00       TIME AVG. MOMENT       8.12    
                                                (FROM FORCE     FIELD)
 ALL MOMENT    RESIDUALS ARE ZERO
 LARGEST INCREMENT OF ROTATION     -1.500E-04   AT NODE        202   DOF  5
 LARGEST CORRECTION TO ROTATION    -8.945E-19   AT NODE        202   DOF  5
          THERE IS ZERO MOMENT    EVERYWHERE

 ITERATION SUMMARY FOR THE INCREMENT:   1 TOTAL ITERATIONS, OF WHICH
   0 ARE SEVERE DISCONTINUITY ITERATIONS AND  1 ARE EQUILIBRIUM ITERATIONS.

 TIME INCREMENT COMPLETED  5.000E-02,  FRACTION OF STEP COMPLETED  0.300    
 STEP TIME COMPLETED       0.300    ,  TOTAL TIME COMPLETED         1.30    


  INCREMENT     7 STARTS. ATTEMPT NUMBER  1, TIME INCREMENT  5.000E-02

  NUMBER OF EQUATIONS =      1485     NUMBER OF RHS =    1
  NUMBER OF FLOATING PT. OPERATIONS =  1.11E+07

  USING THE DIRECT SOLVER WITH  42 PROCESSORS

     CHECK POINT   START OF SOLVER    

     CHECK POINT  END OF SOLVER       

       ELAPSED USER TIME (SEC)      =  0.35000    
       ELAPSED SYSTEM TIME (SEC)    =  4.00000E-02
       ELAPSED TOTAL CPU TIME (SEC) =  0.39000    
       ELAPSED WALLCLOCK TIME (SEC) =          0

               CONVERGENCE CHECKS FOR EQUILIBRIUM ITERATION     1


 AVERAGE FORCE                       6.30       TIME AVG. FORCE        6.45    
 ALL FORCE     RESIDUALS ARE ZERO
 LARGEST INCREMENT OF DISP.         3.258E-03   AT NODE        959   DOF  3
 LARGEST CORRECTION TO DISP.       -9.067E-07   AT NODE        959   DOF  1
          THE FORCE     EQUILIBRIUM RESPONSE WAS LINEAR IN THIS INCREMENT

 AVERAGE MOMENT                      0.00       TIME AVG. MOMENT       8.06    
                                                (FROM FORCE     FIELD)
 ALL MOMENT    RESIDUALS ARE ZERO
 LARGEST INCREMENT OF ROTATION      1.500E-04   AT NODE        202   DOF  6
 LARGEST CORRECTION TO ROTATION     1.735E-18   AT NODE        202   DOF  5
          THERE IS ZERO MOMENT    EVERYWHERE

 ITERATION SUMMARY FOR THE INCREMENT:   1 TOTAL ITERATIONS, OF WHICH
   0 ARE SEVERE DISCONTINUITY ITERATIONS AND  1 ARE EQUILIBRIUM ITERATIONS.

 TIME INCREMENT COMPLETED  5.000E-02,  FRACTION OF STEP COMPLETED  0.350    
 STEP TIME COMPLETED       0.350    ,  TOTAL TIME COMPLETED         1.35    


  INCREMENT     8 STARTS. ATTEMPT NUMBER  1, TIME INCREMENT  5.000E-02

  NUMBER OF EQUATIONS =      1485     NUMBER OF RHS =    1
  NUMBER OF FLOATING PT. OPERATIONS =  1.11E+07

  USING THE DIRECT SOLVER WITH  42 PROCESSORS

     CHECK POINT   START OF SOLVER    

     CHECK POINT  END OF SOLVER       

       ELAPSED USER TIME (SEC)      =  0.29000    
       ELAPSED SYSTEM TIME (SEC)    =  9.00000E-02
       ELAPSED TOTAL CPU TIME (SEC) =  0.38000    
       ELAPSED WALLCLOCK TIME (SEC) =          0

               CONVERGENCE CHECKS FOR EQUILIBRIUM ITERATION     1


 AVERAGE FORCE                       6.36       TIME AVG. FORCE        6.44    
 ALL FORCE     RESIDUALS ARE ZERO
 LARGEST INCREMENT OF DISP.         3.258E-03   AT NODE        959   DOF  3
 LARGEST CORRECTION TO DISP.       -9.066E-07   AT NODE        959   DOF  1
          THE FORCE     EQUILIBRIUM RESPONSE WAS LINEAR IN THIS INCREMENT

 AVERAGE MOMENT                      0.00       TIME AVG. MOMENT       8.02    
                                                (FROM FORCE     FIELD)
 ALL MOMENT    RESIDUALS ARE ZERO
 LARGEST INCREMENT OF ROTATION     -1.500E-04   AT NODE        202   DOF  5
 LARGEST CORRECTION TO ROTATION    -1.762E-18   AT NODE        202   DOF  5
          THERE IS ZERO MOMENT    EVERYWHERE

 ITERATION SUMMARY FOR THE INCREMENT:   1 TOTAL ITERATIONS, OF WHICH
   0 ARE SEVERE DISCONTINUITY ITERATIONS AND  1 ARE EQUILIBRIUM ITERATIONS.

 TIME INCREMENT COMPLETED  5.000E-02,  FRACTION OF STEP COMPLETED  0.400    
 STEP TIME COMPLETED       0.400    ,  TOTAL TIME COMPLETED         1.40    


  INCREMENT     9 STARTS. ATTEMPT NUMBER  1, TIME INCREMENT  5.000E-02

  NUMBER OF EQUATIONS =      1485     NUMBER OF RHS =    1
  NUMBER OF FLOATING PT. OPERATIONS =  1.11E+07

  USING THE DIRECT SOLVER WITH  42 PROCESSORS

     CHECK POINT   START OF SOLVER    

     CHECK POINT  END OF SOLVER       

       ELAPSED USER TIME (SEC)      =  0.31000    
       ELAPSED SYSTEM TIME (SEC)    =  6.00000E-02
       ELAPSED TOTAL CPU TIME (SEC) =  0.37000    
       ELAPSED WALLCLOCK TIME (SEC) =          0

               CONVERGENCE CHECKS FOR EQUILIBRIUM ITERATION     1


 AVERAGE FORCE                       6.43       TIME AVG. FORCE        6.44    
 ALL FORCE     RESIDUALS ARE ZERO
 LARGEST INCREMENT OF DISP.         3.258E-03   AT NODE        959   DOF  3
 LARGEST CORRECTION TO DISP.       -9.066E-07   AT NODE        959   DOF  1
          THE FORCE     EQUILIBRIUM RESPONSE WAS LINEAR IN THIS INCREMENT

 AVERAGE MOMENT                      0.00       TIME AVG. MOMENT       8.01    
                                                (FROM FORCE     FIELD)
 ALL MOMENT    RESIDUALS ARE ZERO
 LARGEST INCREMENT OF ROTATION     -1.500E-04   AT NODE        202   DOF  5
 LARGEST CORRECTION TO ROTATION     8.741E-19   AT NODE        202   DOF  4
          THERE IS ZERO MOMENT    EVERYWHERE

 ITERATION SUMMARY FOR THE INCREMENT:   1 TOTAL ITERATIONS, OF WHICH
   0 ARE SEVERE DISCONTINUITY ITERATIONS AND  1 ARE EQUILIBRIUM ITERATIONS.

 TIME INCREMENT COMPLETED  5.000E-02,  FRACTION OF STEP COMPLETED  0.450    
 STEP TIME COMPLETED       0.450    ,  TOTAL TIME COMPLETED         1.45    


  INCREMENT    10 STARTS. ATTEMPT NUMBER  1, TIME INCREMENT  5.000E-02

  NUMBER OF EQUATIONS =      1485     NUMBER OF RHS =    1
  NUMBER OF FLOATING PT. OPERATIONS =  1.11E+07

  USING THE DIRECT SOLVER WITH  42 PROCESSORS

     CHECK POINT   START OF SOLVER    

     CHECK POINT  END OF SOLVER       

       ELAPSED USER TIME (SEC)      =  0.33000    
       ELAPSED SYSTEM TIME (SEC)    =  6.00000E-02
       ELAPSED TOTAL CPU TIME (SEC) =  0.39000    
       ELAPSED WALLCLOCK TIME (SEC) =          0

               CONVERGENCE CHECKS FOR EQUILIBRIUM ITERATION     1


 AVERAGE FORCE                       6.49       TIME AVG. FORCE        6.44    
 ALL FORCE     RESIDUALS ARE ZERO
 LARGEST INCREMENT OF DISP.         3.258E-03   AT NODE        959   DOF  3
 LARGEST CORRECTION TO DISP.       -9.065E-07   AT NODE        959   DOF  1
          THE FORCE     EQUILIBRIUM RESPONSE WAS LINEAR IN THIS INCREMENT

 AVERAGE MOMENT                      0.00       TIME AVG. MOMENT       8.01    
                                                (FROM FORCE     FIELD)
 ALL MOMENT    RESIDUALS ARE ZERO
 LARGEST INCREMENT OF ROTATION     -1.500E-04   AT NODE        202   DOF  5
 LARGEST CORRECTION TO ROTATION    -2.711E-20   AT NODE        202   DOF  5
          THERE IS ZERO MOMENT    EVERYWHERE

 ITERATION SUMMARY FOR THE INCREMENT:   1 TOTAL ITERATIONS, OF WHICH
   0 ARE SEVERE DISCONTINUITY ITERATIONS AND  1 ARE EQUILIBRIUM ITERATIONS.

 TIME INCREMENT COMPLETED  5.000E-02,  FRACTION OF STEP COMPLETED  0.500    
 STEP TIME COMPLETED       0.500    ,  TOTAL TIME COMPLETED         1.50    


  INCREMENT    11 STARTS. ATTEMPT NUMBER  1, TIME INCREMENT  5.000E-02

  NUMBER OF EQUATIONS =      1485     NUMBER OF RHS =    1
  NUMBER OF FLOATING PT. OPERATIONS =  1.11E+07

  USING THE DIRECT SOLVER WITH  42 PROCESSORS

     CHECK POINT   START OF SOLVER    

     CHECK POINT  END OF SOLVER       

       ELAPSED USER TIME (SEC)      =  0.30000    
       ELAPSED SYSTEM TIME (SEC)    =  8.00000E-02
       ELAPSED TOTAL CPU TIME (SEC) =  0.38000    
       ELAPSED WALLCLOCK TIME (SEC) =          0

               CONVERGENCE CHECKS FOR EQUILIBRIUM ITERATION     1


 AVERAGE FORCE                       6.56       TIME AVG. FORCE        6.46    
 ALL FORCE     RESIDUALS ARE ZERO
 LARGEST INCREMENT OF DISP.         3.258E-03   AT NODE        959   DOF  3
 LARGEST CORRECTION TO DISP.       -9.065E-07   AT NODE        959   DOF  1
          THE FORCE     EQUILIBRIUM RESPONSE WAS LINEAR IN THIS INCREMENT

 AVERAGE MOMENT                      0.00       TIME AVG. MOMENT       8.01    
                                                (FROM FORCE     FIELD)
 ALL MOMENT    RESIDUALS ARE ZERO
 LARGEST INCREMENT OF ROTATION      1.500E-04   AT NODE        202   DOF  6
 LARGEST CORRECTION TO ROTATION     8.674E-19   AT NODE        202   DOF  4
          THERE IS ZERO MOMENT    EVERYWHERE

 ITERATION SUMMARY FOR THE INCREMENT:   1 TOTAL ITERATIONS, OF WHICH
   0 ARE SEVERE DISCONTINUITY ITERATIONS AND  1 ARE EQUILIBRIUM ITERATIONS.

 TIME INCREMENT COMPLETED  5.000E-02,  FRACTION OF STEP COMPLETED  0.550    
 STEP TIME COMPLETED       0.550    ,  TOTAL TIME COMPLETED         1.55    


  INCREMENT    12 STARTS. ATTEMPT NUMBER  1, TIME INCREMENT  5.000E-02

  NUMBER OF EQUATIONS =      1485     NUMBER OF RHS =    1
  NUMBER OF FLOATING PT. OPERATIONS =  1.11E+07

  USING THE DIRECT SOLVER WITH  42 PROCESSORS

     CHECK POINT   START OF SOLVER    

     CHECK POINT  END OF SOLVER       

       ELAPSED USER TIME (SEC)      =  0.28000    
       ELAPSED SYSTEM TIME (SEC)    =  9.00000E-02
       ELAPSED TOTAL CPU TIME (SEC) =  0.37000    
       ELAPSED WALLCLOCK TIME (SEC) =          1

               CONVERGENCE CHECKS FOR EQUILIBRIUM ITERATION     1


 AVERAGE FORCE                       6.63       TIME AVG. FORCE        6.47    
 ALL FORCE     RESIDUALS ARE ZERO
 LARGEST INCREMENT OF DISP.         3.258E-03   AT NODE        959   DOF  3
 LARGEST CORRECTION TO DISP.       -9.064E-07   AT NODE        959   DOF  1
          THE FORCE     EQUILIBRIUM RESPONSE WAS LINEAR IN THIS INCREMENT

 AVERAGE MOMENT                      0.00       TIME AVG. MOMENT       8.03    
                                                (FROM FORCE     FIELD)
 ALL MOMENT    RESIDUALS ARE ZERO
 LARGEST INCREMENT OF ROTATION      1.500E-04   AT NODE        202   DOF  6
 LARGEST CORRECTION TO ROTATION    -8.945E-19   AT NODE        202   DOF  5
          THERE IS ZERO MOMENT    EVERYWHERE

 ITERATION SUMMARY FOR THE INCREMENT:   1 TOTAL ITERATIONS, OF WHICH
   0 ARE SEVERE DISCONTINUITY ITERATIONS AND  1 ARE EQUILIBRIUM ITERATIONS.

 TIME INCREMENT COMPLETED  5.000E-02,  FRACTION OF STEP COMPLETED  0.600    
 STEP TIME COMPLETED       0.600    ,  TOTAL TIME COMPLETED         1.60    


  INCREMENT    13 STARTS. ATTEMPT NUMBER  1, TIME INCREMENT  5.000E-02

  NUMBER OF EQUATIONS =      1485     NUMBER OF RHS =    1
  NUMBER OF FLOATING PT. OPERATIONS =  1.11E+07

  USING THE DIRECT SOLVER WITH  42 PROCESSORS

     CHECK POINT   START OF SOLVER    

     CHECK POINT  END OF SOLVER       

       ELAPSED USER TIME (SEC)      =  0.37000    
       ELAPSED SYSTEM TIME (SEC)    =  7.00000E-02
       ELAPSED TOTAL CPU TIME (SEC) =  0.44000    
       ELAPSED WALLCLOCK TIME (SEC) =          0

               CONVERGENCE CHECKS FOR EQUILIBRIUM ITERATION     1


 AVERAGE FORCE                       6.70       TIME AVG. FORCE        6.49    
 ALL FORCE     RESIDUALS ARE ZERO
 LARGEST INCREMENT OF DISP.         3.258E-03   AT NODE        959   DOF  3
 LARGEST CORRECTION TO DISP.       -9.063E-07   AT NODE        959   DOF  1
          THE FORCE     EQUILIBRIUM RESPONSE WAS LINEAR IN THIS INCREMENT

 AVERAGE MOMENT                      0.00       TIME AVG. MOMENT       8.05    
                                                (FROM FORCE     FIELD)
 ALL MOMENT    RESIDUALS ARE ZERO
 LARGEST INCREMENT OF ROTATION      1.500E-04   AT NODE        202   DOF  6
 LARGEST CORRECTION TO ROTATION     1.084E-19   AT NODE        202   DOF  6
          THERE IS ZERO MOMENT    EVERYWHERE

 ITERATION SUMMARY FOR THE INCREMENT:   1 TOTAL ITERATIONS, OF WHICH
   0 ARE SEVERE DISCONTINUITY ITERATIONS AND  1 ARE EQUILIBRIUM ITERATIONS.

 TIME INCREMENT COMPLETED  5.000E-02,  FRACTION OF STEP COMPLETED  0.650    
 STEP TIME COMPLETED       0.650    ,  TOTAL TIME COMPLETED         1.65    


  INCREMENT    14 STARTS. ATTEMPT NUMBER  1, TIME INCREMENT  5.000E-02

  NUMBER OF EQUATIONS =      1485     NUMBER OF RHS =    1
  NUMBER OF FLOATING PT. OPERATIONS =  1.11E+07

  USING THE DIRECT SOLVER WITH  42 PROCESSORS

     CHECK POINT   START OF SOLVER    

     CHECK POINT  END OF SOLVER       

       ELAPSED USER TIME (SEC)      =  0.32000    
       ELAPSED SYSTEM TIME (SEC)    =  6.00000E-02
       ELAPSED TOTAL CPU TIME (SEC) =  0.38000    
       ELAPSED WALLCLOCK TIME (SEC) =          0

               CONVERGENCE CHECKS FOR EQUILIBRIUM ITERATION     1


 AVERAGE FORCE                       6.78       TIME AVG. FORCE        6.51    
 ALL FORCE     RESIDUALS ARE ZERO
 LARGEST INCREMENT OF DISP.         3.258E-03   AT NODE        959   DOF  3
 LARGEST CORRECTION TO DISP.       -9.063E-07   AT NODE        959   DOF  1
          THE FORCE     EQUILIBRIUM RESPONSE WAS LINEAR IN THIS INCREMENT

 AVERAGE MOMENT                      0.00       TIME AVG. MOMENT       8.07    
                                                (FROM FORCE     FIELD)
 ALL MOMENT    RESIDUALS ARE ZERO
 LARGEST INCREMENT OF ROTATION      1.500E-04   AT NODE        202   DOF  6
 LARGEST CORRECTION TO ROTATION    -1.084E-19   AT NODE        202   DOF  6
          THERE IS ZERO MOMENT    EVERYWHERE

 ITERATION SUMMARY FOR THE INCREMENT:   1 TOTAL ITERATIONS, OF WHICH
   0 ARE SEVERE DISCONTINUITY ITERATIONS AND  1 ARE EQUILIBRIUM ITERATIONS.

 TIME INCREMENT COMPLETED  5.000E-02,  FRACTION OF STEP COMPLETED  0.700    
 STEP TIME COMPLETED       0.700    ,  TOTAL TIME COMPLETED         1.70    


  INCREMENT    15 STARTS. ATTEMPT NUMBER  1, TIME INCREMENT  5.000E-02

  NUMBER OF EQUATIONS =      1485     NUMBER OF RHS =    1
  NUMBER OF FLOATING PT. OPERATIONS =  1.11E+07

  USING THE DIRECT SOLVER WITH  42 PROCESSORS

     CHECK POINT   START OF SOLVER    

     CHECK POINT  END OF SOLVER       

       ELAPSED USER TIME (SEC)      =  0.28000    
       ELAPSED SYSTEM TIME (SEC)    =  5.00000E-02
       ELAPSED TOTAL CPU TIME (SEC) =  0.33000    
       ELAPSED WALLCLOCK TIME (SEC) =          0

               CONVERGENCE CHECKS FOR EQUILIBRIUM ITERATION     1


 AVERAGE FORCE                       6.85       TIME AVG. FORCE        6.53    
 ALL FORCE     RESIDUALS ARE ZERO
 LARGEST INCREMENT OF DISP.         3.258E-03   AT NODE        959   DOF  3
 LARGEST CORRECTION TO DISP.       -9.062E-07   AT NODE        959   DOF  1
          THE FORCE     EQUILIBRIUM RESPONSE WAS LINEAR IN THIS INCREMENT

 AVERAGE MOMENT                      0.00       TIME AVG. MOMENT       8.09    
                                                (FROM FORCE     FIELD)
 ALL MOMENT    RESIDUALS ARE ZERO
 LARGEST INCREMENT OF ROTATION      1.500E-04   AT NODE        202   DOF  6
 LARGEST CORRECTION TO ROTATION     1.084E-19   AT NODE        202   DOF  6
          THERE IS ZERO MOMENT    EVERYWHERE

 ITERATION SUMMARY FOR THE INCREMENT:   1 TOTAL ITERATIONS, OF WHICH
   0 ARE SEVERE DISCONTINUITY ITERATIONS AND  1 ARE EQUILIBRIUM ITERATIONS.

 TIME INCREMENT COMPLETED  5.000E-02,  FRACTION OF STEP COMPLETED  0.750    
 STEP TIME COMPLETED       0.750    ,  TOTAL TIME COMPLETED         1.75    


  INCREMENT    16 STARTS. ATTEMPT NUMBER  1, TIME INCREMENT  5.000E-02

  NUMBER OF EQUATIONS =      1485     NUMBER OF RHS =    1
  NUMBER OF FLOATING PT. OPERATIONS =  1.11E+07

  USING THE DIRECT SOLVER WITH  42 PROCESSORS

     CHECK POINT   START OF SOLVER    

     CHECK POINT  END OF SOLVER       

       ELAPSED USER TIME (SEC)      =  0.33000    
       ELAPSED SYSTEM TIME (SEC)    =  3.00000E-02
       ELAPSED TOTAL CPU TIME (SEC) =  0.36000    
       ELAPSED WALLCLOCK TIME (SEC) =          0

               CONVERGENCE CHECKS FOR EQUILIBRIUM ITERATION     1


 AVERAGE FORCE                       6.91       TIME AVG. FORCE        6.56    
 ALL FORCE     RESIDUALS ARE ZERO
 LARGEST INCREMENT OF DISP.         3.258E-03   AT NODE        959   DOF  3
 LARGEST CORRECTION TO DISP.       -9.062E-07   AT NODE        959   DOF  1
          THE FORCE     EQUILIBRIUM RESPONSE WAS LINEAR IN THIS INCREMENT

 AVERAGE MOMENT                      0.00       TIME AVG. MOMENT       8.12    
                                                (FROM FORCE     FIELD)
 ALL MOMENT    RESIDUALS ARE ZERO
 LARGEST INCREMENT OF ROTATION      1.500E-04   AT NODE        202   DOF  6
 LARGEST CORRECTION TO ROTATION    -8.674E-19   AT NODE        202   DOF  4
          THERE IS ZERO MOMENT    EVERYWHERE

 ITERATION SUMMARY FOR THE INCREMENT:   1 TOTAL ITERATIONS, OF WHICH
   0 ARE SEVERE DISCONTINUITY ITERATIONS AND  1 ARE EQUILIBRIUM ITERATIONS.

 TIME INCREMENT COMPLETED  5.000E-02,  FRACTION OF STEP COMPLETED  0.800    
 STEP TIME COMPLETED       0.800    ,  TOTAL TIME COMPLETED         1.80    


  INCREMENT    17 STARTS. ATTEMPT NUMBER  1, TIME INCREMENT  5.000E-02

  NUMBER OF EQUATIONS =      1485     NUMBER OF RHS =    1
  NUMBER OF FLOATING PT. OPERATIONS =  1.11E+07

  USING THE DIRECT SOLVER WITH  42 PROCESSORS

     CHECK POINT   START OF SOLVER    

     CHECK POINT  END OF SOLVER       

       ELAPSED USER TIME (SEC)      =  0.29000    
       ELAPSED SYSTEM TIME (SEC)    =  6.00000E-02
       ELAPSED TOTAL CPU TIME (SEC) =  0.35000    
       ELAPSED WALLCLOCK TIME (SEC) =          0

               CONVERGENCE CHECKS FOR EQUILIBRIUM ITERATION     1


 AVERAGE FORCE                       7.00       TIME AVG. FORCE        6.58    
 ALL FORCE     RESIDUALS ARE ZERO
 LARGEST INCREMENT OF DISP.         3.258E-03   AT NODE        959   DOF  3
 LARGEST CORRECTION TO DISP.       -9.061E-07   AT NODE        959   DOF  1
          THE FORCE     EQUILIBRIUM RESPONSE WAS LINEAR IN THIS INCREMENT

 AVERAGE MOMENT                      0.00       TIME AVG. MOMENT       8.15    
                                                (FROM FORCE     FIELD)
 ALL MOMENT    RESIDUALS ARE ZERO
 LARGEST INCREMENT OF ROTATION     -1.500E-04   AT NODE        202   DOF  5
 LARGEST CORRECTION TO ROTATION    -4.337E-19   AT NODE        202   DOF  5
          THERE IS ZERO MOMENT    EVERYWHERE

 ITERATION SUMMARY FOR THE INCREMENT:   1 TOTAL ITERATIONS, OF WHICH
   0 ARE SEVERE DISCONTINUITY ITERATIONS AND  1 ARE EQUILIBRIUM ITERATIONS.

 TIME INCREMENT COMPLETED  5.000E-02,  FRACTION OF STEP COMPLETED  0.850    
 STEP TIME COMPLETED       0.850    ,  TOTAL TIME COMPLETED         1.85    


  INCREMENT    18 STARTS. ATTEMPT NUMBER  1, TIME INCREMENT  5.000E-02

  NUMBER OF EQUATIONS =      1485     NUMBER OF RHS =    1
  NUMBER OF FLOATING PT. OPERATIONS =  1.11E+07

  USING THE DIRECT SOLVER WITH  42 PROCESSORS

     CHECK POINT   START OF SOLVER    

     CHECK POINT  END OF SOLVER       

       ELAPSED USER TIME (SEC)      =  0.34000    
       ELAPSED SYSTEM TIME (SEC)    =  0.10000    
       ELAPSED TOTAL CPU TIME (SEC) =  0.44000    
       ELAPSED WALLCLOCK TIME (SEC) =          0

               CONVERGENCE CHECKS FOR EQUILIBRIUM ITERATION     1


 AVERAGE FORCE                       7.08       TIME AVG. FORCE        6.61    
 ALL FORCE     RESIDUALS ARE ZERO
 LARGEST INCREMENT OF DISP.         3.258E-03   AT NODE        959   DOF  3
 LARGEST CORRECTION TO DISP.       -9.061E-07   AT NODE        959   DOF  1
          THE FORCE     EQUILIBRIUM RESPONSE WAS LINEAR IN THIS INCREMENT

 AVERAGE MOMENT                      0.00       TIME AVG. MOMENT       8.18    
                                                (FROM FORCE     FIELD)
 ALL MOMENT    RESIDUALS ARE ZERO
 LARGEST INCREMENT OF ROTATION     -1.500E-04   AT NODE        202   DOF  5
 LARGEST CORRECTION TO ROTATION     8.674E-19   AT NODE        202   DOF  4
          THERE IS ZERO MOMENT    EVERYWHERE

 ITERATION SUMMARY FOR THE INCREMENT:   1 TOTAL ITERATIONS, OF WHICH
   0 ARE SEVERE DISCONTINUITY ITERATIONS AND  1 ARE EQUILIBRIUM ITERATIONS.

 TIME INCREMENT COMPLETED  5.000E-02,  FRACTION OF STEP COMPLETED  0.900    
 STEP TIME COMPLETED       0.900    ,  TOTAL TIME COMPLETED         1.90    


  INCREMENT    19 STARTS. ATTEMPT NUMBER  1, TIME INCREMENT  5.000E-02

  NUMBER OF EQUATIONS =      1485     NUMBER OF RHS =    1
  NUMBER OF FLOATING PT. OPERATIONS =  1.11E+07

  USING THE DIRECT SOLVER WITH  42 PROCESSORS

     CHECK POINT   START OF SOLVER    

     CHECK POINT  END OF SOLVER       

       ELAPSED USER TIME (SEC)      =  0.26000    
       ELAPSED SYSTEM TIME (SEC)    =  6.00000E-02
       ELAPSED TOTAL CPU TIME (SEC) =  0.32000    
       ELAPSED WALLCLOCK TIME (SEC) =          0

               CONVERGENCE CHECKS FOR EQUILIBRIUM ITERATION     1


 AVERAGE FORCE                       7.16       TIME AVG. FORCE        6.64    
 ALL FORCE     RESIDUALS ARE ZERO
 LARGEST INCREMENT OF DISP.         3.257E-03   AT NODE        959   DOF  3
 LARGEST CORRECTION TO DISP.       -9.060E-07   AT NODE        959   DOF  1
          THE FORCE     EQUILIBRIUM RESPONSE WAS LINEAR IN THIS INCREMENT

 AVERAGE MOMENT                      0.00       TIME AVG. MOMENT       8.22    
                                                (FROM FORCE     FIELD)
 ALL MOMENT    RESIDUALS ARE ZERO
 LARGEST INCREMENT OF ROTATION      1.500E-04   AT NODE        202   DOF  6
 LARGEST CORRECTION TO ROTATION     4.337E-19   AT NODE        202   DOF  5
          THERE IS ZERO MOMENT    EVERYWHERE

 ITERATION SUMMARY FOR THE INCREMENT:   1 TOTAL ITERATIONS, OF WHICH
   0 ARE SEVERE DISCONTINUITY ITERATIONS AND  1 ARE EQUILIBRIUM ITERATIONS.

 TIME INCREMENT COMPLETED  5.000E-02,  FRACTION OF STEP COMPLETED  0.950    
 STEP TIME COMPLETED       0.950    ,  TOTAL TIME COMPLETED         1.95    


  INCREMENT    20 STARTS. ATTEMPT NUMBER  1, TIME INCREMENT  5.000E-02

  NUMBER OF EQUATIONS =      1485     NUMBER OF RHS =    1
  NUMBER OF FLOATING PT. OPERATIONS =  1.11E+07

  USING THE DIRECT SOLVER WITH  42 PROCESSORS

     CHECK POINT   START OF SOLVER    

     CHECK POINT  END OF SOLVER       

       ELAPSED USER TIME (SEC)      =  0.27000    
       ELAPSED SYSTEM TIME (SEC)    =  6.00000E-02
       ELAPSED TOTAL CPU TIME (SEC) =  0.33000    
       ELAPSED WALLCLOCK TIME (SEC) =          0

               CONVERGENCE CHECKS FOR EQUILIBRIUM ITERATION     1


 AVERAGE FORCE                       7.26       TIME AVG. FORCE        6.67    
 ALL FORCE     RESIDUALS ARE ZERO
 LARGEST INCREMENT OF DISP.         3.257E-03   AT NODE        959   DOF  3
[...]
          THERE IS ZERO MOMENT    EVERYWHERE
          TIME INCREMENT MAY NOW INCREASE TO    1.875E-02

 ITERATION SUMMARY FOR THE INCREMENT:   1 TOTAL ITERATIONS, OF WHICH
   0 ARE SEVERE DISCONTINUITY ITERATIONS AND  1 ARE EQUILIBRIUM ITERATIONS.

 TIME INCREMENT COMPLETED  1.250E-02,  FRACTION OF STEP COMPLETED  0.813    
 STEP TIME COMPLETED       0.813    ,  TOTAL TIME COMPLETED         39.8    
   ELEMENT 730 IS DISTORTING EXCESSIVELY.
   ELEMENT 730 IS DISTORTING EXCESSIVELY.
   ELEMENT 730 IS DISTORTING EXCESSIVELY.
   ELEMENT 730 IS DISTORTING EXCESSIVELY.
   ELEMENT 730 IS DISTORTING EXCESSIVELY.
   ELEMENT 730 IS DISTORTING EXCESSIVELY.
   ELEMENT 730 IS DISTORTING EXCESSIVELY.
   ELEMENT 730 IS DISTORTING EXCESSIVELY.
   ELEMENT 731 IS DISTORTING EXCESSIVELY.
   ELEMENT 731 IS DISTORTING EXCESSIVELY.
   ELEMENT 731 IS DISTORTING EXCESSIVELY.
   ELEMENT 731 IS DISTORTING EXCESSIVELY.
   ELEMENT 956 IS DISTORTING EXCESSIVELY.
   ELEMENT 956 IS DISTORTING EXCESSIVELY.
   ELEMENT 956 IS DISTORTING EXCESSIVELY.
   ELEMENT 956 IS DISTORTING EXCESSIVELY.
   ELEMENT 956 IS DISTORTING EXCESSIVELY.
   ELEMENT 956 IS DISTORTING EXCESSIVELY.
   ELEMENT 956 IS DISTORTING EXCESSIVELY.
   ELEMENT 956 IS DISTORTING EXCESSIVELY.
   ELEMENT 506 IS DISTORTING EXCESSIVELY.
   ELEMENT 506 IS DISTORTING EXCESSIVELY.
   ELEMENT 775 IS DISTORTING EXCESSIVELY.
   ELEMENT 775 IS DISTORTING EXCESSIVELY.
   ELEMENT 775 IS DISTORTING EXCESSIVELY.
   ELEMENT 775 IS DISTORTING EXCESSIVELY.
   ELEMENT 775 IS DISTORTING EXCESSIVELY.
   ELEMENT 775 IS DISTORTING EXCESSIVELY.
   ELEMENT 775 IS DISTORTING EXCESSIVELY.
   ELEMENT 775 IS DISTORTING EXCESSIVELY.
   ELEMENT 776 IS DISTORTING EXCESSIVELY.
   ELEMENT 776 IS DISTORTING EXCESSIVELY.
   ELEMENT 776 IS DISTORTING EXCESSIVELY.
   ELEMENT 776 IS DISTORTING EXCESSIVELY.
   ELEMENT 640 IS DISTORTING EXCESSIVELY.
   ELEMENT 640 IS DISTORTING EXCESSIVELY.
   ELEMENT 640 IS DISTORTING EXCESSIVELY.
   ELEMENT 640 IS DISTORTING EXCESSIVELY.
   ELEMENT 640 IS DISTORTING EXCESSIVELY.
   ELEMENT 640 IS DISTORTING EXCESSIVELY.
   ELEMENT 640 IS DISTORTING EXCESSIVELY.
   ELEMENT 640 IS DISTORTING EXCESSIVELY.
   ELEMENT 641 IS DISTORTING EXCESSIVELY.
   ELEMENT 641 IS DISTORTING EXCESSIVELY.
   ELEMENT 641 IS DISTORTING EXCESSIVELY.
   ELEMENT 641 IS DISTORTING EXCESSIVELY.
   ELEMENT 820 IS DISTORTING EXCESSIVELY.
   ELEMENT 820 IS DISTORTING EXCESSIVELY.
   ELEMENT 820 IS DISTORTING EXCESSIVELY.
   ELEMENT 820 IS DISTORTING EXCESSIVELY.
   ELEMENT 820 IS DISTORTING EXCESSIVELY.
   ELEMENT 820 IS DISTORTING EXCESSIVELY.
   ELEMENT 820 IS DISTORTING EXCESSIVELY.
   ELEMENT 820 IS DISTORTING EXCESSIVELY.
   ELEMENT 821 IS DISTORTING EXCESSIVELY.
   ELEMENT 821 IS DISTORTING EXCESSIVELY.
   ELEMENT 821 IS DISTORTING EXCESSIVELY.
   ELEMENT 821 IS DISTORTING EXCESSIVELY.
   ELEMENT 821 IS DISTORTING EXCESSIVELY.
   ELEMENT 821 IS DISTORTING EXCESSIVELY.
   ELEMENT 821 IS DISTORTING EXCESSIVELY.
   ELEMENT 1001 IS DISTORTING EXCESSIVELY.
   ELEMENT 1001 IS DISTORTING EXCESSIVELY.
   ELEMENT 1001 IS DISTORTING EXCESSIVELY.
   ELEMENT 1001 IS DISTORTING EXCESSIVELY.
   ELEMENT 1001 IS DISTORTING EXCESSIVELY.
   ELEMENT 1001 IS DISTORTING EXCESSIVELY.
   ELEMENT 1001 IS DISTORTING EXCESSIVELY.
   ELEMENT 1001 IS DISTORTING EXCESSIVELY.
   ELEMENT 865 IS DISTORTING EXCESSIVELY.
   ELEMENT 865 IS DISTORTING EXCESSIVELY.
   ELEMENT 865 IS DISTORTING EXCESSIVELY.
   ELEMENT 865 IS DISTORTING EXCESSIVELY.
   ELEMENT 865 IS DISTORTING EXCESSIVELY.
   ELEMENT 865 IS DISTORTING EXCESSIVELY.
   ELEMENT 865 IS DISTORTING EXCESSIVELY.
   ELEMENT 865 IS DISTORTING EXCESSIVELY.
   ELEMENT 866 IS DISTORTING EXCESSIVELY.
   ELEMENT 866 IS DISTORTING EXCESSIVELY.
   ELEMENT 866 IS DISTORTING EXCESSIVELY.
   ELEMENT 866 IS DISTORTING EXCESSIVELY.
   ELEMENT 866 IS DISTORTING EXCESSIVELY.
   ELEMENT 866 IS DISTORTING EXCESSIVELY.
   ELEMENT 866 IS DISTORTING EXCESSIVELY.
   ELEMENT 866 IS DISTORTING EXCESSIVELY.
   ELEMENT 595 IS DISTORTING EXCESSIVELY.
   ELEMENT 595 IS DISTORTING EXCESSIVELY.
   ELEMENT 595 IS DISTORTING EXCESSIVELY.
   ELEMENT 595 IS DISTORTING EXCESSIVELY.
   ELEMENT 595 IS DISTORTING EXCESSIVELY.
   ELEMENT 595 IS DISTORTING EXCESSIVELY.
   ELEMENT 595 IS DISTORTING EXCESSIVELY.
   ELEMENT 595 IS DISTORTING EXCESSIVELY.
   ELEMENT 596 IS DISTORTING EXCESSIVELY.
   ELEMENT 596 IS DISTORTING EXCESSIVELY.
   ELEMENT 596 IS DISTORTING EXCESSIVELY.
   ELEMENT 596 IS DISTORTING EXCESSIVELY.
   ELEMENT 685 IS DISTORTING EXCESSIVELY.
   ELEMENT 685 IS DISTORTING EXCESSIVELY.
   ELEMENT 685 IS DISTORTING EXCESSIVELY.
   ELEMENT 685 IS DISTORTING EXCESSIVELY.
   ELEMENT 685 IS DISTORTING EXCESSIVELY.
   ELEMENT 685 IS DISTORTING EXCESSIVELY.
   ELEMENT 685 IS DISTORTING EXCESSIVELY.
   ELEMENT 685 IS DISTORTING EXCESSIVELY.
   ELEMENT 686 IS DISTORTING EXCESSIVELY.
   ELEMENT 686 IS DISTORTING EXCESSIVELY.
   ELEMENT 686 IS DISTORTING EXCESSIVELY.
   ELEMENT 686 IS DISTORTING EXCESSIVELY.
   ELEMENT 911 IS DISTORTING EXCESSIVELY.
   ELEMENT 911 IS DISTORTING EXCESSIVELY.
   ELEMENT 911 IS DISTORTING EXCESSIVELY.
   ELEMENT 911 IS DISTORTING EXCESSIVELY.
   ELEMENT 911 IS DISTORTING EXCESSIVELY.
   ELEMENT 911 IS DISTORTING EXCESSIVELY.
   ELEMENT 911 IS DISTORTING EXCESSIVELY.
   ELEMENT 911 IS DISTORTING EXCESSIVELY.
   ELEMENT 550 IS DISTORTING EXCESSIVELY.
   ELEMENT 550 IS DISTORTING EXCESSIVELY.
   ELEMENT 550 IS DISTORTING EXCESSIVELY.
   ELEMENT 550 IS DISTORTING EXCESSIVELY.
   ELEMENT 550 IS DISTORTING EXCESSIVELY.
   ELEMENT 550 IS DISTORTING EXCESSIVELY.
   ELEMENT 550 IS DISTORTING EXCESSIVELY.
   ELEMENT 550 IS DISTORTING EXCESSIVELY.
   ELEMENT 551 IS DISTORTING EXCESSIVELY.
   ELEMENT 551 IS DISTORTING EXCESSIVELY.
   ELEMENT 551 IS DISTORTING EXCESSIVELY.
   ELEMENT 551 IS DISTORTING EXCESSIVELY.


  INCREMENT    18 STARTS. ATTEMPT NUMBER  1, TIME INCREMENT  1.875E-02

 ***WARNING: EXCESSIVE DISTORTION AT A TOTAL OF 46 INTEGRATION POINTS IN SOLID 
             (CONTINUUM) ELEMENTS


  INCREMENT    18 STARTS. ATTEMPT NUMBER  2, TIME INCREMENT  4.688E-03
 

 ***NOTE: ELEMENTS ARE DISTORTING EXCESSIVELY. CONVERGENCE IS JUDGED UNLIKELY.
   ELEMENT 865 IS DISTORTING EXCESSIVELY.
   ELEMENT 865 IS DISTORTING EXCESSIVELY.
   ELEMENT 865 IS DISTORTING EXCESSIVELY.

 ***WARNING: EXCESSIVE DISTORTION AT A TOTAL OF 3 INTEGRATION POINTS IN SOLID 
             (CONTINUUM) ELEMENTS
 

 ***NOTE: ELEMENTS ARE DISTORTING EXCESSIVELY. CONVERGENCE IS JUDGED UNLIKELY.


  INCREMENT    18 STARTS. ATTEMPT NUMBER  3, TIME INCREMENT  1.172E-03

  NUMBER OF EQUATIONS =      1485     NUMBER OF RHS =    1
  NUMBER OF FLOATING PT. OPERATIONS =  1.11E+07

  USING THE DIRECT SOLVER WITH  42 PROCESSORS

     CHECK POINT   START OF SOLVER    

     CHECK POINT  END OF SOLVER       

       ELAPSED USER TIME (SEC)      =  0.28000    
       ELAPSED SYSTEM TIME (SEC)    =  0.10000    
       ELAPSED TOTAL CPU TIME (SEC) =  0.38000    
       ELAPSED WALLCLOCK TIME (SEC) =          0

               CONVERGENCE CHECKS FOR EQUILIBRIUM ITERATION     1


 AVERAGE FORCE                       800.       TIME AVG. FORCE        187.    
 ALL FORCE     RESIDUALS ARE ZERO
 LARGEST INCREMENT OF DISP.         3.490E-03   AT NODE       1069   DOF  3
 LARGEST CORRECTION TO DISP.        3.490E-03   AT NODE       1069   DOF  3
          THE FORCE     EQUILIBRIUM RESPONSE WAS LINEAR IN THIS INCREMENT

 AVERAGE MOMENT                      0.00       TIME AVG. MOMENT       188.    
                                                (FROM FORCE     FIELD)
 ALL MOMENT    RESIDUALS ARE ZERO
 LARGEST INCREMENT OF ROTATION      1.242E-04   AT NODE        202   DOF  5
 LARGEST CORRECTION TO ROTATION     1.242E-04   AT NODE        202   DOF  5
          THERE IS ZERO MOMENT    EVERYWHERE
          TIME INCREMENT MAY NOW INCREASE TO    1.758E-03

 ITERATION SUMMARY FOR THE INCREMENT:   1 TOTAL ITERATIONS, OF WHICH
   0 ARE SEVERE DISCONTINUITY ITERATIONS AND  1 ARE EQUILIBRIUM ITERATIONS.

 TIME INCREMENT COMPLETED  1.172E-03,  FRACTION OF STEP COMPLETED  0.814    
 STEP TIME COMPLETED       0.814    ,  TOTAL TIME COMPLETED         39.8    
   ELEMENT 865 IS DISTORTING EXCESSIVELY.
   ELEMENT 865 IS DISTORTING EXCESSIVELY.
   ELEMENT 865 IS DISTORTING EXCESSIVELY.
   ELEMENT 865 IS DISTORTING EXCESSIVELY.
   ELEMENT 865 IS DISTORTING EXCESSIVELY.
   ELEMENT 865 IS DISTORTING EXCESSIVELY.
   ELEMENT 865 IS DISTORTING EXCESSIVELY.
   ELEMENT 865 IS DISTORTING EXCESSIVELY.
   ELEMENT 595 IS DISTORTING EXCESSIVELY.
   ELEMENT 595 IS DISTORTING EXCESSIVELY.
   ELEMENT 595 IS DISTORTING EXCESSIVELY.
   ELEMENT 595 IS DISTORTING EXCESSIVELY.
   ELEMENT 820 IS DISTORTING EXCESSIVELY.
   ELEMENT 820 IS DISTORTING EXCESSIVELY.
   ELEMENT 820 IS DISTORTING EXCESSIVELY.
   ELEMENT 820 IS DISTORTING EXCESSIVELY.
   ELEMENT 820 IS DISTORTING EXCESSIVELY.
   ELEMENT 820 IS DISTORTING EXCESSIVELY.
   ELEMENT 820 IS DISTORTING EXCESSIVELY.
   ELEMENT 820 IS DISTORTING EXCESSIVELY.
   ELEMENT 775 IS DISTORTING EXCESSIVELY.
   ELEMENT 775 IS DISTORTING EXCESSIVELY.
   ELEMENT 775 IS DISTORTING EXCESSIVELY.
   ELEMENT 775 IS DISTORTING EXCESSIVELY.
   ELEMENT 775 IS DISTORTING EXCESSIVELY.
   ELEMENT 775 IS DISTORTING EXCESSIVELY.
   ELEMENT 775 IS DISTORTING EXCESSIVELY.
   ELEMENT 775 IS DISTORTING EXCESSIVELY.
   ELEMENT 685 IS DISTORTING EXCESSIVELY.
   ELEMENT 685 IS DISTORTING EXCESSIVELY.
   ELEMENT 685 IS DISTORTING EXCESSIVELY.
   ELEMENT 685 IS DISTORTING EXCESSIVELY.
   ELEMENT 730 IS DISTORTING EXCESSIVELY.
   ELEMENT 730 IS DISTORTING EXCESSIVELY.
   ELEMENT 730 IS DISTORTING EXCESSIVELY.
   ELEMENT 730 IS DISTORTING EXCESSIVELY.
   ELEMENT 730 IS DISTORTING EXCESSIVELY.
   ELEMENT 730 IS DISTORTING EXCESSIVELY.
   ELEMENT 640 IS DISTORTING EXCESSIVELY.
   ELEMENT 640 IS DISTORTING EXCESSIVELY.
   ELEMENT 640 IS DISTORTING EXCESSIVELY.
   ELEMENT 640 IS DISTORTING EXCESSIVELY.
   ELEMENT 550 IS DISTORTING EXCESSIVELY.
   ELEMENT 550 IS DISTORTING EXCESSIVELY.
   ELEMENT 550 IS DISTORTING EXCESSIVELY.
   ELEMENT 550 IS DISTORTING EXCESSIVELY.


  INCREMENT    19 STARTS. ATTEMPT NUMBER  1, TIME INCREMENT  1.758E-03

  NUMBER OF EQUATIONS =      1485     NUMBER OF RHS =    1
  NUMBER OF FLOATING PT. OPERATIONS =  1.11E+07

  USING THE DIRECT SOLVER WITH  42 PROCESSORS

     CHECK POINT   START OF SOLVER    

     CHECK POINT  END OF SOLVER       

       ELAPSED USER TIME (SEC)      =  0.34000    
       ELAPSED SYSTEM TIME (SEC)    =  7.00000E-02
       ELAPSED TOTAL CPU TIME (SEC) =  0.41000    
       ELAPSED WALLCLOCK TIME (SEC) =          0

               CONVERGENCE CHECKS FOR EQUILIBRIUM ITERATION     1


 AVERAGE FORCE                       949.       TIME AVG. FORCE        227.    
 ALL FORCE     RESIDUALS ARE ZERO
 LARGEST INCREMENT OF DISP.         5.235E-03   AT NODE       1069   DOF  3
 LARGEST CORRECTION TO DISP.        6.441E-07   AT NODE       1069   DOF  1
          THE FORCE     EQUILIBRIUM RESPONSE WAS LINEAR IN THIS INCREMENT

 AVERAGE MOMENT                      0.00       TIME AVG. MOMENT       233.    
                                                (FROM FORCE     FIELD)
 ALL MOMENT    RESIDUALS ARE ZERO
 LARGEST INCREMENT OF ROTATION      1.863E-04   AT NODE        202   DOF  5
 LARGEST CORRECTION TO ROTATION    -6.939E-18   AT NODE        202   DOF  5
          THERE IS ZERO MOMENT    EVERYWHERE
          TIME INCREMENT MAY NOW INCREASE TO    2.637E-03

 ITERATION SUMMARY FOR THE INCREMENT:   1 TOTAL ITERATIONS, OF WHICH
   0 ARE SEVERE DISCONTINUITY ITERATIONS AND  1 ARE EQUILIBRIUM ITERATIONS.

 TIME INCREMENT COMPLETED  1.758E-03,  FRACTION OF STEP COMPLETED  0.815    
 STEP TIME COMPLETED       0.815    ,  TOTAL TIME COMPLETED         39.8    


  INCREMENT    20 STARTS. ATTEMPT NUMBER  1, TIME INCREMENT  2.637E-03

 ***WARNING: EXCESSIVE DISTORTION AT A TOTAL OF 7 INTEGRATION POINTS IN SOLID 
             (CONTINUUM) ELEMENTS


  INCREMENT    20 STARTS. ATTEMPT NUMBER  2, TIME INCREMENT  6.592E-04
 

 ***NOTE: ELEMENTS ARE DISTORTING EXCESSIVELY. CONVERGENCE IS JUDGED UNLIKELY.

  NUMBER OF EQUATIONS =      1485     NUMBER OF RHS =    1
  NUMBER OF FLOATING PT. OPERATIONS =  1.11E+07

  USING THE DIRECT SOLVER WITH  42 PROCESSORS

     CHECK POINT   START OF SOLVER    

     CHECK POINT  END OF SOLVER       

       ELAPSED USER TIME (SEC)      =  0.31000    
       ELAPSED SYSTEM TIME (SEC)    =  4.00000E-02
       ELAPSED TOTAL CPU TIME (SEC) =  0.35000    
       ELAPSED WALLCLOCK TIME (SEC) =          0

               CONVERGENCE CHECKS FOR EQUILIBRIUM ITERATION     1


 AVERAGE FORCE                      1.037E+03   TIME AVG. FORCE        268.    
 ALL FORCE     RESIDUALS ARE ZERO
 LARGEST INCREMENT OF DISP.         1.963E-03   AT NODE       1069   DOF  3
 LARGEST CORRECTION TO DISP.        1.993E-07   AT NODE       1069   DOF  1
          THE FORCE     EQUILIBRIUM RESPONSE WAS LINEAR IN THIS INCREMENT

 AVERAGE MOMENT                      0.00       TIME AVG. MOMENT       282.    
                                                (FROM FORCE     FIELD)
 ALL MOMENT    RESIDUALS ARE ZERO
 LARGEST INCREMENT OF ROTATION      6.987E-05   AT NODE        202   DOF  5
 LARGEST CORRECTION TO ROTATION    -3.456E-18   AT NODE        202   DOF  5
          THERE IS ZERO MOMENT    EVERYWHERE
          TIME INCREMENT MAY NOW INCREASE TO    9.888E-04

 ITERATION SUMMARY FOR THE INCREMENT:   1 TOTAL ITERATIONS, OF WHICH
   0 ARE SEVERE DISCONTINUITY ITERATIONS AND  1 ARE EQUILIBRIUM ITERATIONS.

 TIME INCREMENT COMPLETED  6.592E-04,  FRACTION OF STEP COMPLETED  0.816    
 STEP TIME COMPLETED       0.816    ,  TOTAL TIME COMPLETED         39.8    
   ELEMENT 865 IS DISTORTING EXCESSIVELY.
   ELEMENT 865 IS DISTORTING EXCESSIVELY.
   ELEMENT 865 IS DISTORTING EXCESSIVELY.
   ELEMENT 865 IS DISTORTING EXCESSIVELY.
   ELEMENT 820 IS DISTORTING EXCESSIVELY.
   ELEMENT 820 IS DISTORTING EXCESSIVELY.
   ELEMENT 820 IS DISTORTING EXCESSIVELY.


  INCREMENT    21 STARTS. ATTEMPT NUMBER  1, TIME INCREMENT  9.888E-04

 ***WARNING: EXCESSIVE DISTORTION AT A TOTAL OF 3 INTEGRATION POINTS IN SOLID 
             (CONTINUUM) ELEMENTS


  INCREMENT    21 STARTS. ATTEMPT NUMBER  2, TIME INCREMENT  2.472E-04
 

 ***NOTE: ELEMENTS ARE DISTORTING EXCESSIVELY. CONVERGENCE IS JUDGED UNLIKELY.

  NUMBER OF EQUATIONS =      1485     NUMBER OF RHS =    1
  NUMBER OF FLOATING PT. OPERATIONS =  1.11E+07

  USING THE DIRECT SOLVER WITH  42 PROCESSORS

     CHECK POINT   START OF SOLVER    

     CHECK POINT  END OF SOLVER       

       ELAPSED USER TIME (SEC)      =  0.30000    
       ELAPSED SYSTEM TIME (SEC)    =  5.00000E-02
       ELAPSED TOTAL CPU TIME (SEC) =  0.35000    
       ELAPSED WALLCLOCK TIME (SEC) =          0

               CONVERGENCE CHECKS FOR EQUILIBRIUM ITERATION     1


 AVERAGE FORCE                      1.107E+03   TIME AVG. FORCE        308.    
 ALL FORCE     RESIDUALS ARE ZERO
 LARGEST INCREMENT OF DISP.         7.362E-04   AT NODE       1069   DOF  3
 LARGEST CORRECTION TO DISP.        2.802E-08   AT NODE       1069   DOF  1
          THE FORCE     EQUILIBRIUM RESPONSE WAS LINEAR IN THIS INCREMENT

 AVERAGE MOMENT                      0.00       TIME AVG. MOMENT       333.    
                                                (FROM FORCE     FIELD)
 ALL MOMENT    RESIDUALS ARE ZERO
 LARGEST INCREMENT OF ROTATION      2.620E-05   AT NODE        202   DOF  5
 LARGEST CORRECTION TO ROTATION    -4.337E-18   AT NODE        202   DOF  5
          THERE IS ZERO MOMENT    EVERYWHERE
          TIME INCREMENT MAY NOW INCREASE TO    3.708E-04

 ITERATION SUMMARY FOR THE INCREMENT:   1 TOTAL ITERATIONS, OF WHICH
   0 ARE SEVERE DISCONTINUITY ITERATIONS AND  1 ARE EQUILIBRIUM ITERATIONS.

 TIME INCREMENT COMPLETED  2.472E-04,  FRACTION OF STEP COMPLETED  0.816    
 STEP TIME COMPLETED       0.816    ,  TOTAL TIME COMPLETED         39.8    
   ELEMENT 865 IS DISTORTING EXCESSIVELY.
   ELEMENT 865 IS DISTORTING EXCESSIVELY.
   ELEMENT 865 IS DISTORTING EXCESSIVELY.


  INCREMENT    22 STARTS. ATTEMPT NUMBER  1, TIME INCREMENT  3.708E-04

 ***WARNING: EXCESSIVE DISTORTION AT A TOTAL OF 1 INTEGRATION POINTS IN SOLID 
             (CONTINUUM) ELEMENTS


  INCREMENT    22 STARTS. ATTEMPT NUMBER  2, TIME INCREMENT  9.270E-05
 

 ***NOTE: ELEMENTS ARE DISTORTING EXCESSIVELY. CONVERGENCE IS JUDGED UNLIKELY.

  NUMBER OF EQUATIONS =      1485     NUMBER OF RHS =    1
  NUMBER OF FLOATING PT. OPERATIONS =  1.11E+07

  USING THE DIRECT SOLVER WITH  42 PROCESSORS

     CHECK POINT   START OF SOLVER    

     CHECK POINT  END OF SOLVER       

       ELAPSED USER TIME (SEC)      =  0.28000    
       ELAPSED SYSTEM TIME (SEC)    =  8.00000E-02
       ELAPSED TOTAL CPU TIME (SEC) =  0.36000    
       ELAPSED WALLCLOCK TIME (SEC) =          1

               CONVERGENCE CHECKS FOR EQUILIBRIUM ITERATION     1


 AVERAGE FORCE                      1.152E+03   TIME AVG. FORCE        346.    
 ALL FORCE     RESIDUALS ARE ZERO
 LARGEST INCREMENT OF DISP.         2.761E-04   AT NODE       1069   DOF  3
 LARGEST CORRECTION TO DISP.        3.941E-09   AT NODE       1069   DOF  1
          THE FORCE     EQUILIBRIUM RESPONSE WAS LINEAR IN THIS INCREMENT

 AVERAGE MOMENT                      0.00       TIME AVG. MOMENT       383.    
                                                (FROM FORCE     FIELD)
 ALL MOMENT    RESIDUALS ARE ZERO
 LARGEST INCREMENT OF ROTATION      9.826E-06   AT NODE        202   DOF  5
 LARGEST CORRECTION TO ROTATION    -2.604E-18   AT NODE        202   DOF  5
          THERE IS ZERO MOMENT    EVERYWHERE
          TIME INCREMENT MAY NOW INCREASE TO    1.390E-04

 ITERATION SUMMARY FOR THE INCREMENT:   1 TOTAL ITERATIONS, OF WHICH
   0 ARE SEVERE DISCONTINUITY ITERATIONS AND  1 ARE EQUILIBRIUM ITERATIONS.

 TIME INCREMENT COMPLETED  9.270E-05,  FRACTION OF STEP COMPLETED  0.816    
 STEP TIME COMPLETED       0.816    ,  TOTAL TIME COMPLETED         39.8    
   ELEMENT 865 IS DISTORTING EXCESSIVELY.


  INCREMENT    23 STARTS. ATTEMPT NUMBER  1, TIME INCREMENT  1.390E-04

 ***WARNING: EXCESSIVE DISTORTION AT A TOTAL OF 1 INTEGRATION POINTS IN SOLID 
             (CONTINUUM) ELEMENTS


  INCREMENT    23 STARTS. ATTEMPT NUMBER  2, TIME INCREMENT  5.000E-05
 

 ***NOTE: ELEMENTS ARE DISTORTING EXCESSIVELY. CONVERGENCE IS JUDGED UNLIKELY.
   ELEMENT 865 IS DISTORTING EXCESSIVELY.

 ***WARNING: EXCESSIVE DISTORTION AT A TOTAL OF 1 INTEGRATION POINTS IN SOLID 
             (CONTINUUM) ELEMENTS
 

 ***NOTE: ELEMENTS ARE DISTORTING EXCESSIVELY. CONVERGENCE IS JUDGED UNLIKELY.
 

 ***ERROR: TIME INCREMENT REQUIRED IS LESS THAN THE MINIMUM SPECIFIED
   ELEMENT 865 IS DISTORTING EXCESSIVELY.

 ***ERROR: THE ANALYSIS HAS BEEN TERMINATED DUE TO PREVIOUS ERRORS. ALL OUTPUT 
           REQUESTS HAVE BEEN WRITTEN FOR THE LAST CONVERGED INCREMENT.



     ANALYSIS SUMMARY:
     TOTAL OF        803  INCREMENTS
                       8  CUTBACKS IN AUTOMATIC INCREMENTATION
                     802  ITERATIONS INCLUDING CONTACT ITERATIONS IF PRESENT
                     802  PASSES THROUGH THE EQUATION SOLVER OF WHICH 
                     802  INVOLVE MATRIX DECOMPOSITION, INCLUDING
                       0  DECOMPOSITION(S) OF THE MASS MATRIX
                       1  REORDERING OF EQUATIONS TO MINIMIZE WAVEFRONT
                       0  ADDITIONAL RESIDUAL EVALUATIONS FOR LINE SEARCHES
                       0  ADDITIONAL OPERATOR EVALUATIONS FOR LINE SEARCHES
                     623  WARNING MESSAGES DURING USER INPUT PROCESSING
                       8  WARNING MESSAGES DURING ANALYSIS
                       0  ANALYSIS WARNINGS ARE NUMERICAL PROBLEM MESSAGES
                       0  ANALYSIS WARNINGS ARE NEGATIVE EIGENVALUE MESSAGES
                       2  ERROR MESSAGES



     JOB TIME SUMMARY
       USER TIME (SEC)      =   1290.1    
       SYSTEM TIME (SEC)    =   406.46    
       TOTAL CPU TIME (SEC) =   1696.5    
       WALLCLOCK TIME (SEC) =        130
