 Abaqus/Standard 2021.HF4                  DATE 24-Feb-2023 TIME 15:48:02
 SUMMARY OF JOB INFORMATION:
 STEP  INC ATT SEVERE EQUIL TOTAL  TOTAL      STEP       INC OF       DOF    IF
               DISCON ITERS ITERS  TIME/    TIME/LPF    TIME/LPF    MONITOR RIKS
               ITERS               FREQ
   1     1   1     0     1     1  0.0500     0.0500     0.05000   
   1     2   1     0     1     1  0.100      0.100      0.05000   
   1     3   1     0     1     1  0.150      0.150      0.05000   
   1     4   1     0     1     1  0.200      0.200      0.05000   
   1     5   1     0     1     1  0.250      0.250      0.05000   
   1     6   1     0     1     1  0.300      0.300      0.05000   
   1     7   1     0     1     1  0.350      0.350      0.05000   
   1     8   1     0     1     1  0.400      0.400      0.05000   
   1     9   1     0     1     1  0.450      0.450      0.05000   
   1    10   1     0     1     1  0.500      0.500      0.05000   
   1    11   1     0     1     1  0.550      0.550      0.05000   
   1    12   1     0     1     1  0.600      0.600      0.05000   
   1    13   1     0     1     1  0.650      0.650      0.05000   
   1    14   1     0     1     1  0.700      0.700      0.05000   
   1    15   1     0     1     1  0.750      0.750      0.05000   
   1    16   1     0     1     1  0.800      0.800      0.05000   
   1    17   1     0     1     1  0.850      0.850      0.05000   
   1    18   1     0     1     1  0.900      0.900      0.05000   
   1    19   1     0     1     1  0.950      0.950      0.05000   
   1    20   1     0     1     1  1.00       1.00       0.05000   
   2     1   1     0     1     1  1.05       0.0500     0.05000   
   2     2   1     0     1     1  1.10       0.100      0.05000   
   2     3   1     0     1     1  1.15       0.150      0.05000   
   2     4   1     0     1     1  1.20       0.200      0.05000   
   2     5   1     0     1     1  1.25       0.250      0.05000   
   2     6   1     0     1     1  1.30       0.300      0.05000   
   2     7   1     0     1     1  1.35       0.350      0.05000   
   2     8   1     0     1     1  1.40       0.400      0.05000   
   2     9   1     0     1     1  1.45       0.450      0.05000   
   2    10   1     0     1     1  1.50       0.500      0.05000   
   2    11   1     0     1     1  1.55       0.550      0.05000   
   2    12   1     0     1     1  1.60       0.600      0.05000   
   2    13   1     0     1     1  1.65       0.650      0.05000   
   2    14   1     0     1     1  1.70       0.700      0.05000   
   2    15   1     0     1     1  1.75       0.750      0.05000   
   2    16   1     0     1     1  1.80       0.800      0.05000   
   2    17   1     0     1     1  1.85       0.850      0.05000   
   2    18   1     0     1     1  1.90       0.900      0.05000   
   2    19   1     0     1     1  1.95       0.950      0.05000   
   2    20   1     0     1     1  2.00       1.00       0.05000   
   3     1   1     0     1     1  2.05       0.0500     0.05000   
   3     2   1     0     1     1  2.10       0.100      0.05000   
   3     3   1     0     1     1  2.15       0.150      0.05000   
   3     4   1     0     1     1  2.20       0.200      0.05000   
   3     5   1     0     1     1  2.25       0.250      0.05000   
   3     6   1     0     1     1  2.30       0.300      0.05000   
   3     7   1     0     1     1  2.35       0.350      0.05000   
   3     8   1     0     1     1  2.40       0.400      0.05000   
   3     9   1     0     1     1  2.45       0.450      0.05000   
   3    10   1     0     1     1  2.50       0.500      0.05000   
   3    11   1     0     1     1  2.55       0.550      0.05000   
   3    12   1     0     1     1  2.60       0.600      0.05000   
   3    13   1     0     1     1  2.65       0.650      0.05000   
   3    14   1     0     1     1  2.70       0.700      0.05000   
   3    15   1     0     1     1  2.75       0.750      0.05000   
   3    16   1     0     1     1  2.80       0.800      0.05000   
   3    17   1     0     1     1  2.85       0.850      0.05000   
   3    18   1     0     1     1  2.90       0.900      0.05000   
   3    19   1     0     1     1  2.95       0.950      0.05000   
   3    20   1     0     1     1  3.00       1.00       0.05000   
   4     1   1     0     1     1  3.05       0.0500     0.05000   
   4     2   1     0     1     1  3.10       0.100      0.05000   
   4     3   1     0     1     1  3.15       0.150      0.05000   
   4     4   1     0     1     1  3.20       0.200      0.05000   
   4     5   1     0     1     1  3.25       0.250      0.05000   
   4     6   1     0     1     1  3.30       0.300      0.05000   
   4     7   1     0     1     1  3.35       0.350      0.05000   
   4     8   1     0     1     1  3.40       0.400      0.05000   
   4     9   1     0     1     1  3.45       0.450      0.05000   
   4    10   1     0     1     1  3.50       0.500      0.05000   
   4    11   1     0     1     1  3.55       0.550      0.05000   
   4    12   1     0     1     1  3.60       0.600      0.05000   
   4    13   1     0     1     1  3.65       0.650      0.05000   
   4    14   1     0     1     1  3.70       0.700      0.05000   
   4    15   1     0     1     1  3.75       0.750      0.05000   
   4    16   1     0     1     1  3.80       0.800      0.05000   
   4    17   1     0     1     1  3.85       0.850      0.05000   
   4    18   1     0     1     1  3.90       0.900      0.05000   
   4    19   1     0     1     1  3.95       0.950      0.05000   
   4    20   1     0     1     1  4.00       1.00       0.05000   
   5     1   1     0     1     1  4.05       0.0500     0.05000   
   5     2   1     0     1     1  4.10       0.100      0.05000   
   5     3   1     0     1     1  4.15       0.150      0.05000   
   5     4   1     0     1     1  4.20       0.200      0.05000   
   5     5   1     0     1     1  4.25       0.250      0.05000   
   5     6   1     0     1     1  4.30       0.300      0.05000   
   5     7   1     0     1     1  4.35       0.350      0.05000   
   5     8   1     0     1     1  4.40       0.400      0.05000   
   5     9   1     0     1     1  4.45       0.450      0.05000   
   5    10   1     0     1     1  4.50       0.500      0.05000   
   5    11   1     0     1     1  4.55       0.550      0.05000   
   5    12   1     0     1     1  4.60       0.600      0.05000   
   5    13   1     0     1     1  4.65       0.650      0.05000   
   5    14   1     0     1     1  4.70       0.700      0.05000   
   5    15   1     0     1     1  4.75       0.750      0.05000   
   5    16   1     0     1     1  4.80       0.800      0.05000   
   5    17   1     0     1     1  4.85       0.850      0.05000   
   5    18   1     0     1     1  4.90       0.900      0.05000   
   5    19   1     0     1     1  4.95       0.950      0.05000   
   5    20   1     0     1     1  5.00       1.00       0.05000   
   6     1   1     0     1     1  5.05       0.0500     0.05000   
   6     2   1     0     1     1  5.10       0.100      0.05000   
   6     3   1     0     1     1  5.15       0.150      0.05000   
   6     4   1     0     1     1  5.20       0.200      0.05000   
   6     5   1     0     1     1  5.25       0.250      0.05000   
   6     6   1     0     1     1  5.30       0.300      0.05000   
   6     7   1     0     1     1  5.35       0.350      0.05000   
   6     8   1     0     1     1  5.40       0.400      0.05000   
   6     9   1     0     1     1  5.45       0.450      0.05000   
   6    10   1     0     1     1  5.50       0.500      0.05000   
   6    11   1     0     1     1  5.55       0.550      0.05000   
   6    12   1     0     1     1  5.60       0.600      0.05000   
   6    13   1     0     1     1  5.65       0.650      0.05000   
   6    14   1     0     1     1  5.70       0.700      0.05000   
   6    15   1     0     1     1  5.75       0.750      0.05000   
   6    16   1     0     1     1  5.80       0.800      0.05000   
   6    17   1     0     1     1  5.85       0.850      0.05000   
   6    18   1     0     1     1  5.90       0.900      0.05000   
   6    19   1     0     1     1  5.95       0.950      0.05000   
   6    20   1     0     1     1  6.00       1.00       0.05000   
   7     1   1U    0     1     1  6.00       0.00       0.05000   
   7     1   2U    0     1     1  6.00       0.00       0.01250   
   7     1   3U    0     1     1  6.00       0.00       0.003125  
   7     1   4U    0     1     1  6.00       0.00       0.0007813 
   7     1   5     0     1     1  6.00       0.000195   0.0001953 
   7     2   1     0     1     1  6.00       0.000391   0.0001953 
   7     3   1U    0     1     1  6.00       0.000391   0.0002930 
   7     3   2     0     1     1  6.00       0.000464   7.324e-05 
   7     4   1     0     1     1  6.00       0.000574   0.0001099 
   7     5   1U    0     1     1  6.00       0.000574   0.0001648 
   7     5   2     0     1     1  6.00       0.000624   5.000e-05 
   7     6   1U    0     1     1  6.00       0.000624   7.500e-05 
   7     6   2U    0     0     0  6.00       0.000624   5.000e-05 
                          
 THE ANALYSIS HAS NOT BEEN COMPLETED
