1

   Abaqus 2021                                  Date 22-Feb-2023   Time 18:58:57
   For use by UNIVERSITAET BERN under license from Dassault Systemes or its subsidiary.

                                                                                 
                                                                                 
 STEP    1     INCREMENT     1     STEP TIME    0.00    


                        S T E P       1     S T A T I C   A N A L Y S I S


                                                                                          

     AUTOMATIC TIME CONTROL WITH -
          A SUGGESTED INITIAL TIME INCREMENT OF                5.000E-02
          AND A TOTAL TIME PERIOD OF                            1.00    
          THE MINIMUM TIME INCREMENT ALLOWED IS                5.000E-05
          THE MAXIMUM TIME INCREMENT ALLOWED IS                5.000E-02

     LINEAR EQUATION SOLVER TYPE         DIRECT SPARSE

 CONVERGENCE TOLERANCE PARAMETERS FOR FORCE    
     CRITERION FOR RESIDUAL FORCE     FOR A NONLINEAR PROBLEM          5.000E-03
     CRITERION FOR DISP.    CORRECTION IN A NONLINEAR PROBLEM          1.000E-02
     INITIAL VALUE OF TIME AVERAGE FORCE                               1.000E-02
     AVERAGE FORCE     IS TIME AVERAGE FORCE    
     ALTERNATE CRIT. FOR RESIDUAL FORCE     FOR A NONLINEAR PROBLEM    2.000E-02
     CRITERION FOR ZERO FORCE     RELATIVE TO TIME AVRG. FORCE         1.000E-05
     CRITERION FOR RESIDUAL FORCE     WHEN THERE IS ZERO FLUX          1.000E-05
     CRITERION FOR DISP.    CORRECTION WHEN THERE IS ZERO FLUX         1.000E-03
     CRITERION FOR RESIDUAL FORCE     FOR A LINEAR INCREMENT           1.000E-08
     FIELD CONVERSION RATIO                                             1.00    
     CRITERION FOR ZERO FORCE     REL. TO TIME AVRG. MAX. FORCE        1.000E-05
     CRITERION FOR ZERO DISP.    RELATIVE TO CHARACTERISTIC LENGTH     1.000E-08

 CONVERGENCE TOLERANCE PARAMETERS FOR MOMENT   
     CRITERION FOR RESIDUAL MOMENT    FOR A NONLINEAR PROBLEM          5.000E-03
     CRITERION FOR ROTATION CORRECTION IN A NONLINEAR PROBLEM          1.000E-02
     INITIAL VALUE OF TIME AVERAGE MOMENT                              1.000E-02
     AVERAGE MOMENT    IS TIME AVERAGE MOMENT   
     ALTERNATE CRIT. FOR RESIDUAL MOMENT    FOR A NONLINEAR PROBLEM    2.000E-02
     CRITERION FOR ZERO MOMENT    RELATIVE TO TIME AVRG. MOMENT        1.000E-05
     CRITERION FOR RESIDUAL MOMENT    WHEN THERE IS ZERO FLUX          1.000E-05
     CRITERION FOR ROTATION CORRECTION WHEN THERE IS ZERO FLUX         1.000E-03
     CRITERION FOR RESIDUAL MOMENT    FOR A LINEAR INCREMENT           1.000E-08
     FIELD CONVERSION RATIO                                             1.00    
     CRITERION FOR ZERO MOMENT    REL. TO TIME AVRG. MAX. MOMENT       1.000E-05

     VOLUMETRIC STRAIN COMPATIBILITY TOLERANCE FOR HYBRID SOLIDS       1.000E-05
     AXIAL STRAIN COMPATIBILITY TOLERANCE FOR HYBRID BEAMS             1.000E-05
     TRANS. SHEAR STRAIN COMPATIBILITY TOLERANCE FOR HYBRID BEAMS      1.000E-05
     SOFT CONTACT CONSTRAINT COMPATIBILITY TOLERANCE FOR P>P0          5.000E-03
     SOFT CONTACT CONSTRAINT COMPATIBILITY TOLERANCE FOR P=0.0         0.100    
     CONTACT FORCE ERROR TOLERANCE FOR CONVERT SDI=YES                 1.00    
     DISPLACEMENT COMPATIBILITY TOLERANCE FOR DCOUP ELEMENTS           1.000E-05
     ROTATION COMPATIBILITY TOLERANCE FOR DCOUP ELEMENTS               1.000E-05

 EQUILIBRIUM WILL BE CHECKED FOR SEVERE DISCONTINUITY ITERATIONS

 TIME INCREMENTATION CONTROL PARAMETERS:
     FIRST EQUILIBRIUM ITERATION FOR CONSECUTIVE DIVERGENCE CHECK              4
     EQUILIBRIUM ITERATION AT WHICH LOG. CONVERGENCE RATE CHECK BEGINS         8
     EQUILIBRIUM ITERATION AFTER WHICH ALTERNATE RESIDUAL IS USED              9
     MAXIMUM EQUILIBRIUM ITERATIONS ALLOWED                                   16
     EQUILIBRIUM ITERATION COUNT FOR CUT-BACK IN NEXT INCREMENT               10
     MAXIMUM EQUILIB. ITERS IN TWO INCREMENTS FOR TIME INCREMENT INCREASE      4
     MAXIMUM ITERATIONS FOR SEVERE DISCONTINUITIES                            50
     MAXIMUM ATTEMPTS ALLOWED IN AN INCREMENT                                  5
     MAXIMUM DISCON. ITERS IN TWO INCREMENTS FOR TIME INCREMENT INCREASE      50
     MAXIMUM CONTACT AUGMENTATIONS FOR *SURFACE BEHAVIOR,AUGMENTED LAGRANGE   50
     CUT-BACK FACTOR AFTER DIVERGENCE                                 0.2500    
     CUT-BACK FACTOR FOR TOO SLOW CONVERGENCE                         0.5000    
     CUT-BACK FACTOR AFTER TOO MANY EQUILIBRIUM ITERATIONS            0.7500    
     CUT-BACK FACTOR AFTER TOO MANY SEVERE DISCONTINUITY ITERATIONS   0.2500    
     CUT-BACK FACTOR AFTER PROBLEMS IN ELEMENT ASSEMBLY               0.2500    
     INCREASE FACTOR AFTER TWO INCREMENTS THAT CONVERGE QUICKLY        1.500    
     MAX. TIME INCREMENT INCREASE FACTOR ALLOWED                       1.500    
     MAX. TIME INCREMENT INCREASE FACTOR ALLOWED (DYNAMICS)            1.250    
     MAX. TIME INCREMENT INCREASE FACTOR ALLOWED (DIFFUSION)           2.000    
     MINIMUM TIME INCREMENT RATIO FOR EXTRAPOLATION TO OCCUR          0.1000    
     MAX. RATIO OF TIME INCREMENT TO STABILITY LIMIT                   1.000    
     FRACTION OF STABILITY LIMIT FOR NEW TIME INCREMENT               0.9500    
     TIME INCREMENT INCREASE FACTOR BEFORE A TIME POINT                1.000    
     GLOBAL STABILIZATION CONTROL IS NOT USED

          PRINT OF INCREMENT NUMBER, TIME, ETC., EVERY    1  INCREMENTS

     THE MAXIMUM NUMBER OF INCREMENTS IN THIS STEP IS                    1000

          LARGE DISPLACEMENT THEORY WILL BE USED

          UNSYMMETRIC MATRIX STORAGE AND SOLUTION WILL BE USED

     LINEAR EXTRAPOLATION WILL BE USED

     CHARACTERISTIC ELEMENT LENGTH      1.24    

     DETAILS REGARDING ACTUAL SOLUTION WAVEFRONT REQUESTED

     DETAILED OUTPUT OF DIAGNOSTICS TO DATABASE REQUESTED

     PRINT OF INCREMENT NUMBER, TIME, ETC., TO THE MESSAGE FILE EVERY     1  INCREMENTS

     ELEMENT OPERATIONS WILL BE CARRIED OUT IN PARALLEL USING  42 PROCESSORS

     PARALLEL CONTACT TRACKING ENABLED


     COLLECTING MODEL CONSTRAINT INFORMATION FOR OVERCONSTRAINT CHECKS

     COLLECTING STEP CONSTRAINT INFORMATION FOR OVERCONSTRAINT CHECKS


  INCREMENT     1 STARTS. ATTEMPT NUMBER  1, TIME INCREMENT  5.000E-02
 
     INITIAL ELEMENT LOAD BALANCE
            PROCESS    1   THREAD     NUMBER OF ELEMENTS
                              1            15
                              2            8
                              3            8
                              4            8
                              5            8
                              6            8
                              7            8
                              8            8
                              9            8
                             10            8
                             11            8
                             12            8
                             13            8
                             14            8
                             15            8
                             16            8
                             17            8
                             18            8
                             19            8
                             20            8
                             21            8
                             22            8
                             23            8
                             24            8
                             25            8
                             26            8
                             27            8
                             28            8
                             29            8
                             30            8
                             31            8
                             32            8
                             33            8
                             34            8
                             35            8
                             36            8
                             37            8
                             38            8
                             39            8
                             40            8
                             41            8
                             42            8

  NUMBER OF EQUATIONS =      1170     NUMBER OF RHS =    1
  NUMBER OF FLOATING PT. OPERATIONS =  6.72E+06

  USING THE DIRECT SOLVER WITH  42 PROCESSORS

     CHECK POINT   START OF SOLVER    

     CHECK POINT  END OF SOLVER       

       ELAPSED USER TIME (SEC)      =   6.8500    
       ELAPSED SYSTEM TIME (SEC)    =  5.00000E-02
       ELAPSED TOTAL CPU TIME (SEC) =   6.9000    
       ELAPSED WALLCLOCK TIME (SEC) =          0

               CONVERGENCE CHECKS FOR EQUILIBRIUM ITERATION     1


 AVERAGE FORCE                      0.325       TIME AVG. FORCE       0.325    
 ALL FORCE     RESIDUALS ARE ZERO
 LARGEST INCREMENT OF DISP.        -1.261E-03   AT NODE       1046   DOF  3
 LARGEST CORRECTION TO DISP.       -1.261E-03   AT NODE       1046   DOF  3
          THE FORCE     EQUILIBRIUM RESPONSE WAS LINEAR IN THIS INCREMENT

 AVERAGE MOMENT                      0.00       TIME AVG. MOMENT      0.402    
                                                (FROM FORCE     FIELD)
 ALL MOMENT    RESIDUALS ARE ZERO
 LARGEST INCREMENT OF ROTATION     -5.000E-05   AT NODE        342   DOF  4
 LARGEST CORRECTION TO ROTATION    -5.000E-05   AT NODE        342   DOF  4
          THERE IS ZERO MOMENT    EVERYWHERE

 ITERATION SUMMARY FOR THE INCREMENT:   1 TOTAL ITERATIONS, OF WHICH
   0 ARE SEVERE DISCONTINUITY ITERATIONS AND  1 ARE EQUILIBRIUM ITERATIONS.

 TIME INCREMENT COMPLETED  5.000E-02,  FRACTION OF STEP COMPLETED  5.000E-02
 STEP TIME COMPLETED       5.000E-02,  TOTAL TIME COMPLETED        5.000E-02


  INCREMENT     2 STARTS. ATTEMPT NUMBER  1, TIME INCREMENT  5.000E-02

  NUMBER OF EQUATIONS =      1170     NUMBER OF RHS =    1
  NUMBER OF FLOATING PT. OPERATIONS =  6.72E+06

  USING THE DIRECT SOLVER WITH  42 PROCESSORS

     CHECK POINT   START OF SOLVER    

     CHECK POINT  END OF SOLVER       

       ELAPSED USER TIME (SEC)      =  0.50000    
       ELAPSED SYSTEM TIME (SEC)    =  0.15000    
       ELAPSED TOTAL CPU TIME (SEC) =  0.65000    
       ELAPSED WALLCLOCK TIME (SEC) =          0

               CONVERGENCE CHECKS FOR EQUILIBRIUM ITERATION     1


 AVERAGE FORCE                      0.651       TIME AVG. FORCE       0.488    
 ALL FORCE     RESIDUALS ARE ZERO
 LARGEST INCREMENT OF DISP.        -1.261E-03   AT NODE       1046   DOF  3
 LARGEST CORRECTION TO DISP.       -6.056E-08   AT NODE       1046   DOF  2
          THE FORCE     EQUILIBRIUM RESPONSE WAS LINEAR IN THIS INCREMENT

 AVERAGE MOMENT                      0.00       TIME AVG. MOMENT      0.402    
                                                (FROM FORCE     FIELD)
 ALL MOMENT    RESIDUALS ARE ZERO
 LARGEST INCREMENT OF ROTATION     -5.000E-05   AT NODE        342   DOF  4
 LARGEST CORRECTION TO ROTATION    -1.812E-32   AT NODE        342   DOF  5
          THERE IS ZERO MOMENT    EVERYWHERE

 ITERATION SUMMARY FOR THE INCREMENT:   1 TOTAL ITERATIONS, OF WHICH
   0 ARE SEVERE DISCONTINUITY ITERATIONS AND  1 ARE EQUILIBRIUM ITERATIONS.

 TIME INCREMENT COMPLETED  5.000E-02,  FRACTION OF STEP COMPLETED  0.100    
 STEP TIME COMPLETED       0.100    ,  TOTAL TIME COMPLETED        0.100    


  INCREMENT     3 STARTS. ATTEMPT NUMBER  1, TIME INCREMENT  5.000E-02

  NUMBER OF EQUATIONS =      1170     NUMBER OF RHS =    1
  NUMBER OF FLOATING PT. OPERATIONS =  6.72E+06

  USING THE DIRECT SOLVER WITH  42 PROCESSORS

     CHECK POINT   START OF SOLVER    

     CHECK POINT  END OF SOLVER       

       ELAPSED USER TIME (SEC)      =  0.42000    
       ELAPSED SYSTEM TIME (SEC)    =  7.00000E-02
       ELAPSED TOTAL CPU TIME (SEC) =  0.49000    
       ELAPSED WALLCLOCK TIME (SEC) =          0

               CONVERGENCE CHECKS FOR EQUILIBRIUM ITERATION     1


 AVERAGE FORCE                      0.975       TIME AVG. FORCE       0.650    
 ALL FORCE     RESIDUALS ARE ZERO
 LARGEST INCREMENT OF DISP.        -1.261E-03   AT NODE       1046   DOF  3
 LARGEST CORRECTION TO DISP.       -6.056E-08   AT NODE       1046   DOF  1
          THE FORCE     EQUILIBRIUM RESPONSE WAS LINEAR IN THIS INCREMENT

 AVERAGE MOMENT                      0.00       TIME AVG. MOMENT      0.604    
                                                (FROM FORCE     FIELD)
 ALL MOMENT    RESIDUALS ARE ZERO
 LARGEST INCREMENT OF ROTATION     -5.000E-05   AT NODE        342   DOF  4
 LARGEST CORRECTION TO ROTATION    -3.388E-20   AT NODE        342   DOF  4
          THERE IS ZERO MOMENT    EVERYWHERE

 ITERATION SUMMARY FOR THE INCREMENT:   1 TOTAL ITERATIONS, OF WHICH
   0 ARE SEVERE DISCONTINUITY ITERATIONS AND  1 ARE EQUILIBRIUM ITERATIONS.

 TIME INCREMENT COMPLETED  5.000E-02,  FRACTION OF STEP COMPLETED  0.150    
 STEP TIME COMPLETED       0.150    ,  TOTAL TIME COMPLETED        0.150    


  INCREMENT     4 STARTS. ATTEMPT NUMBER  1, TIME INCREMENT  5.000E-02

  NUMBER OF EQUATIONS =      1170     NUMBER OF RHS =    1
  NUMBER OF FLOATING PT. OPERATIONS =  6.72E+06

  USING THE DIRECT SOLVER WITH  42 PROCESSORS

     CHECK POINT   START OF SOLVER    

     CHECK POINT  END OF SOLVER       

       ELAPSED USER TIME (SEC)      =  0.27000    
       ELAPSED SYSTEM TIME (SEC)    =  0.13000    
       ELAPSED TOTAL CPU TIME (SEC) =  0.40000    
       ELAPSED WALLCLOCK TIME (SEC) =          0

               CONVERGENCE CHECKS FOR EQUILIBRIUM ITERATION     1


 AVERAGE FORCE                       1.29       TIME AVG. FORCE       0.810    
 ALL FORCE     RESIDUALS ARE ZERO
 LARGEST INCREMENT OF DISP.        -1.261E-03   AT NODE       1046   DOF  3
 LARGEST CORRECTION TO DISP.       -6.056E-08   AT NODE       1046   DOF  2
          THE FORCE     EQUILIBRIUM RESPONSE WAS LINEAR IN THIS INCREMENT

 AVERAGE MOMENT                      0.00       TIME AVG. MOMENT      0.805    
                                                (FROM FORCE     FIELD)
 ALL MOMENT    RESIDUALS ARE ZERO
 LARGEST INCREMENT OF ROTATION     -5.000E-05   AT NODE        342   DOF  4
 LARGEST CORRECTION TO ROTATION    -6.776E-20   AT NODE        342   DOF  5
          THERE IS ZERO MOMENT    EVERYWHERE

 ITERATION SUMMARY FOR THE INCREMENT:   1 TOTAL ITERATIONS, OF WHICH
   0 ARE SEVERE DISCONTINUITY ITERATIONS AND  1 ARE EQUILIBRIUM ITERATIONS.

 TIME INCREMENT COMPLETED  5.000E-02,  FRACTION OF STEP COMPLETED  0.200    
 STEP TIME COMPLETED       0.200    ,  TOTAL TIME COMPLETED        0.200    


  INCREMENT     5 STARTS. ATTEMPT NUMBER  1, TIME INCREMENT  5.000E-02

  NUMBER OF EQUATIONS =      1170     NUMBER OF RHS =    1
  NUMBER OF FLOATING PT. OPERATIONS =  6.72E+06

  USING THE DIRECT SOLVER WITH  42 PROCESSORS

     CHECK POINT   START OF SOLVER    

     CHECK POINT  END OF SOLVER       

       ELAPSED USER TIME (SEC)      =  0.31000    
       ELAPSED SYSTEM TIME (SEC)    =  7.00000E-02
       ELAPSED TOTAL CPU TIME (SEC) =  0.38000    
       ELAPSED WALLCLOCK TIME (SEC) =          0

               CONVERGENCE CHECKS FOR EQUILIBRIUM ITERATION     1


 AVERAGE FORCE                       1.58       TIME AVG. FORCE       0.963    
 ALL FORCE     RESIDUALS ARE ZERO
 LARGEST INCREMENT OF DISP.        -1.261E-03   AT NODE       1046   DOF  3
 LARGEST CORRECTION TO DISP.       -6.056E-08   AT NODE       1046   DOF  1
          THE FORCE     EQUILIBRIUM RESPONSE WAS LINEAR IN THIS INCREMENT

 AVERAGE MOMENT                      0.00       TIME AVG. MOMENT       1.00    
                                                (FROM FORCE     FIELD)
 ALL MOMENT    RESIDUALS ARE ZERO
 LARGEST INCREMENT OF ROTATION     -5.000E-05   AT NODE        342   DOF  4
 LARGEST CORRECTION TO ROTATION    -2.711E-20   AT NODE        342   DOF  4
          THERE IS ZERO MOMENT    EVERYWHERE

 ITERATION SUMMARY FOR THE INCREMENT:   1 TOTAL ITERATIONS, OF WHICH
   0 ARE SEVERE DISCONTINUITY ITERATIONS AND  1 ARE EQUILIBRIUM ITERATIONS.

 TIME INCREMENT COMPLETED  5.000E-02,  FRACTION OF STEP COMPLETED  0.250    
 STEP TIME COMPLETED       0.250    ,  TOTAL TIME COMPLETED        0.250    


  INCREMENT     6 STARTS. ATTEMPT NUMBER  1, TIME INCREMENT  5.000E-02

  NUMBER OF EQUATIONS =      1170     NUMBER OF RHS =    1
  NUMBER OF FLOATING PT. OPERATIONS =  6.72E+06

  USING THE DIRECT SOLVER WITH  42 PROCESSORS

     CHECK POINT   START OF SOLVER    

     CHECK POINT  END OF SOLVER       

       ELAPSED USER TIME (SEC)      =  0.26000    
       ELAPSED SYSTEM TIME (SEC)    =  8.00000E-02
       ELAPSED TOTAL CPU TIME (SEC) =  0.34000    
       ELAPSED WALLCLOCK TIME (SEC) =          0

               CONVERGENCE CHECKS FOR EQUILIBRIUM ITERATION     1


 AVERAGE FORCE                       1.85       TIME AVG. FORCE        1.11    
 ALL FORCE     RESIDUALS ARE ZERO
 LARGEST INCREMENT OF DISP.        -1.261E-03   AT NODE       1046   DOF  3
 LARGEST CORRECTION TO DISP.       -6.056E-08   AT NODE       1046   DOF  2
          THE FORCE     EQUILIBRIUM RESPONSE WAS LINEAR IN THIS INCREMENT

 AVERAGE MOMENT                      0.00       TIME AVG. MOMENT       1.19    
                                                (FROM FORCE     FIELD)
 ALL MOMENT    RESIDUALS ARE ZERO
 LARGEST INCREMENT OF ROTATION     -5.000E-05   AT NODE        342   DOF  4
 LARGEST CORRECTION TO ROTATION    -2.711E-20   AT NODE        342   DOF  5
          THERE IS ZERO MOMENT    EVERYWHERE

 ITERATION SUMMARY FOR THE INCREMENT:   1 TOTAL ITERATIONS, OF WHICH
   0 ARE SEVERE DISCONTINUITY ITERATIONS AND  1 ARE EQUILIBRIUM ITERATIONS.

 TIME INCREMENT COMPLETED  5.000E-02,  FRACTION OF STEP COMPLETED  0.300    
 STEP TIME COMPLETED       0.300    ,  TOTAL TIME COMPLETED        0.300    


  INCREMENT     7 STARTS. ATTEMPT NUMBER  1, TIME INCREMENT  5.000E-02

  NUMBER OF EQUATIONS =      1170     NUMBER OF RHS =    1
  NUMBER OF FLOATING PT. OPERATIONS =  6.72E+06

  USING THE DIRECT SOLVER WITH  42 PROCESSORS

     CHECK POINT   START OF SOLVER    

     CHECK POINT  END OF SOLVER       

       ELAPSED USER TIME (SEC)      =  0.27000    
       ELAPSED SYSTEM TIME (SEC)    =  7.00000E-02
       ELAPSED TOTAL CPU TIME (SEC) =  0.34000    
       ELAPSED WALLCLOCK TIME (SEC) =          0

               CONVERGENCE CHECKS FOR EQUILIBRIUM ITERATION     1


 AVERAGE FORCE                       2.11       TIME AVG. FORCE        1.25    
 ALL FORCE     RESIDUALS ARE ZERO
 LARGEST INCREMENT OF DISP.        -1.261E-03   AT NODE       1046   DOF  3
 LARGEST CORRECTION TO DISP.       -6.056E-08   AT NODE       1046   DOF  1
          THE FORCE     EQUILIBRIUM RESPONSE WAS LINEAR IN THIS INCREMENT

 AVERAGE MOMENT                      0.00       TIME AVG. MOMENT       1.38    
                                                (FROM FORCE     FIELD)
 ALL MOMENT    RESIDUALS ARE ZERO
 LARGEST INCREMENT OF ROTATION     -5.000E-05   AT NODE        342   DOF  4
 LARGEST CORRECTION TO ROTATION    -5.421E-20   AT NODE        342   DOF  4
          THERE IS ZERO MOMENT    EVERYWHERE

 ITERATION SUMMARY FOR THE INCREMENT:   1 TOTAL ITERATIONS, OF WHICH
   0 ARE SEVERE DISCONTINUITY ITERATIONS AND  1 ARE EQUILIBRIUM ITERATIONS.

 TIME INCREMENT COMPLETED  5.000E-02,  FRACTION OF STEP COMPLETED  0.350    
 STEP TIME COMPLETED       0.350    ,  TOTAL TIME COMPLETED        0.350    


  INCREMENT     8 STARTS. ATTEMPT NUMBER  1, TIME INCREMENT  5.000E-02

  NUMBER OF EQUATIONS =      1170     NUMBER OF RHS =    1
  NUMBER OF FLOATING PT. OPERATIONS =  6.72E+06

  USING THE DIRECT SOLVER WITH  42 PROCESSORS

     CHECK POINT   START OF SOLVER    

     CHECK POINT  END OF SOLVER       

       ELAPSED USER TIME (SEC)      =  0.22000    
       ELAPSED SYSTEM TIME (SEC)    =  0.13000    
       ELAPSED TOTAL CPU TIME (SEC) =  0.35000    
       ELAPSED WALLCLOCK TIME (SEC) =          0

               CONVERGENCE CHECKS FOR EQUILIBRIUM ITERATION     1


 AVERAGE FORCE                       2.36       TIME AVG. FORCE        1.39    
 ALL FORCE     RESIDUALS ARE ZERO
 LARGEST INCREMENT OF DISP.        -1.261E-03   AT NODE       1046   DOF  3
 LARGEST CORRECTION TO DISP.       -6.056E-08   AT NODE       1046   DOF  2
          THE FORCE     EQUILIBRIUM RESPONSE WAS LINEAR IN THIS INCREMENT

 AVERAGE MOMENT                      0.00       TIME AVG. MOMENT       1.55    
                                                (FROM FORCE     FIELD)
 ALL MOMENT    RESIDUALS ARE ZERO
 LARGEST INCREMENT OF ROTATION     -5.000E-05   AT NODE        342   DOF  4
 LARGEST CORRECTION TO ROTATION    -5.421E-20   AT NODE        342   DOF  5
          THERE IS ZERO MOMENT    EVERYWHERE

 ITERATION SUMMARY FOR THE INCREMENT:   1 TOTAL ITERATIONS, OF WHICH
   0 ARE SEVERE DISCONTINUITY ITERATIONS AND  1 ARE EQUILIBRIUM ITERATIONS.

 TIME INCREMENT COMPLETED  5.000E-02,  FRACTION OF STEP COMPLETED  0.400    
 STEP TIME COMPLETED       0.400    ,  TOTAL TIME COMPLETED        0.400    


  INCREMENT     9 STARTS. ATTEMPT NUMBER  1, TIME INCREMENT  5.000E-02

  NUMBER OF EQUATIONS =      1170     NUMBER OF RHS =    1
  NUMBER OF FLOATING PT. OPERATIONS =  6.72E+06

  USING THE DIRECT SOLVER WITH  42 PROCESSORS

     CHECK POINT   START OF SOLVER    

     CHECK POINT  END OF SOLVER       

       ELAPSED USER TIME (SEC)      =  0.28000    
       ELAPSED SYSTEM TIME (SEC)    =  7.00000E-02
       ELAPSED TOTAL CPU TIME (SEC) =  0.35000    
       ELAPSED WALLCLOCK TIME (SEC) =          0

               CONVERGENCE CHECKS FOR EQUILIBRIUM ITERATION     1


 AVERAGE FORCE                       2.59       TIME AVG. FORCE        1.52    
 ALL FORCE     RESIDUALS ARE ZERO
 LARGEST INCREMENT OF DISP.        -1.261E-03   AT NODE       1046   DOF  3
 LARGEST CORRECTION TO DISP.       -6.056E-08   AT NODE       1046   DOF  2
          THE FORCE     EQUILIBRIUM RESPONSE WAS LINEAR IN THIS INCREMENT

 AVERAGE MOMENT                      0.00       TIME AVG. MOMENT       1.72    
                                                (FROM FORCE     FIELD)
 ALL MOMENT    RESIDUALS ARE ZERO
 LARGEST INCREMENT OF ROTATION     -5.000E-05   AT NODE        342   DOF  4
 LARGEST CORRECTION TO ROTATION    -5.421E-20   AT NODE        342   DOF  4
          THERE IS ZERO MOMENT    EVERYWHERE

 ITERATION SUMMARY FOR THE INCREMENT:   1 TOTAL ITERATIONS, OF WHICH
   0 ARE SEVERE DISCONTINUITY ITERATIONS AND  1 ARE EQUILIBRIUM ITERATIONS.

 TIME INCREMENT COMPLETED  5.000E-02,  FRACTION OF STEP COMPLETED  0.450    
 STEP TIME COMPLETED       0.450    ,  TOTAL TIME COMPLETED        0.450    


  INCREMENT    10 STARTS. ATTEMPT NUMBER  1, TIME INCREMENT  5.000E-02

  NUMBER OF EQUATIONS =      1170     NUMBER OF RHS =    1
  NUMBER OF FLOATING PT. OPERATIONS =  6.72E+06

  USING THE DIRECT SOLVER WITH  42 PROCESSORS

     CHECK POINT   START OF SOLVER    

     CHECK POINT  END OF SOLVER       

       ELAPSED USER TIME (SEC)      =  0.25000    
       ELAPSED SYSTEM TIME (SEC)    =  7.00000E-02
       ELAPSED TOTAL CPU TIME (SEC) =  0.32000    
       ELAPSED WALLCLOCK TIME (SEC) =          0

               CONVERGENCE CHECKS FOR EQUILIBRIUM ITERATION     1


 AVERAGE FORCE                       2.82       TIME AVG. FORCE        1.65    
 ALL FORCE     RESIDUALS ARE ZERO
 LARGEST INCREMENT OF DISP.        -1.261E-03   AT NODE       1046   DOF  3
 LARGEST CORRECTION TO DISP.       -6.056E-08   AT NODE       1046   DOF  1
          THE FORCE     EQUILIBRIUM RESPONSE WAS LINEAR IN THIS INCREMENT

 AVERAGE MOMENT                      0.00       TIME AVG. MOMENT       1.89    
                                                (FROM FORCE     FIELD)
 ALL MOMENT    RESIDUALS ARE ZERO
 LARGEST INCREMENT OF ROTATION     -5.000E-05   AT NODE        342   DOF  4
 LARGEST CORRECTION TO ROTATION    -1.084E-19   AT NODE        342   DOF  5
          THERE IS ZERO MOMENT    EVERYWHERE

 ITERATION SUMMARY FOR THE INCREMENT:   1 TOTAL ITERATIONS, OF WHICH
   0 ARE SEVERE DISCONTINUITY ITERATIONS AND  1 ARE EQUILIBRIUM ITERATIONS.

 TIME INCREMENT COMPLETED  5.000E-02,  FRACTION OF STEP COMPLETED  0.500    
 STEP TIME COMPLETED       0.500    ,  TOTAL TIME COMPLETED        0.500    


  INCREMENT    11 STARTS. ATTEMPT NUMBER  1, TIME INCREMENT  5.000E-02

  NUMBER OF EQUATIONS =      1170     NUMBER OF RHS =    1
  NUMBER OF FLOATING PT. OPERATIONS =  6.72E+06

  USING THE DIRECT SOLVER WITH  42 PROCESSORS

     CHECK POINT   START OF SOLVER    

     CHECK POINT  END OF SOLVER       

       ELAPSED USER TIME (SEC)      =  0.21000    
       ELAPSED SYSTEM TIME (SEC)    =  8.00000E-02
       ELAPSED TOTAL CPU TIME (SEC) =  0.29000    
       ELAPSED WALLCLOCK TIME (SEC) =          0

               CONVERGENCE CHECKS FOR EQUILIBRIUM ITERATION     1


 AVERAGE FORCE                       3.04       TIME AVG. FORCE        1.78    
 ALL FORCE     RESIDUALS ARE ZERO
 LARGEST INCREMENT OF DISP.        -1.261E-03   AT NODE       1046   DOF  3
 LARGEST CORRECTION TO DISP.       -6.056E-08   AT NODE       1046   DOF  1
          THE FORCE     EQUILIBRIUM RESPONSE WAS LINEAR IN THIS INCREMENT

 AVERAGE MOMENT                      0.00       TIME AVG. MOMENT       2.05    
                                                (FROM FORCE     FIELD)
 ALL MOMENT    RESIDUALS ARE ZERO
 LARGEST INCREMENT OF ROTATION     -5.000E-05   AT NODE        342   DOF  4
 LARGEST CORRECTION TO ROTATION    -1.084E-19   AT NODE        342   DOF  4
          THERE IS ZERO MOMENT    EVERYWHERE

 ITERATION SUMMARY FOR THE INCREMENT:   1 TOTAL ITERATIONS, OF WHICH
   0 ARE SEVERE DISCONTINUITY ITERATIONS AND  1 ARE EQUILIBRIUM ITERATIONS.

 TIME INCREMENT COMPLETED  5.000E-02,  FRACTION OF STEP COMPLETED  0.550    
 STEP TIME COMPLETED       0.550    ,  TOTAL TIME COMPLETED        0.550    


  INCREMENT    12 STARTS. ATTEMPT NUMBER  1, TIME INCREMENT  5.000E-02

  NUMBER OF EQUATIONS =      1170     NUMBER OF RHS =    1
  NUMBER OF FLOATING PT. OPERATIONS =  6.72E+06

  USING THE DIRECT SOLVER WITH  42 PROCESSORS

     CHECK POINT   START OF SOLVER    

     CHECK POINT  END OF SOLVER       

       ELAPSED USER TIME (SEC)      =  0.30000    
       ELAPSED SYSTEM TIME (SEC)    =  5.00000E-02
       ELAPSED TOTAL CPU TIME (SEC) =  0.35000    
       ELAPSED WALLCLOCK TIME (SEC) =          0

               CONVERGENCE CHECKS FOR EQUILIBRIUM ITERATION     1


 AVERAGE FORCE                       3.26       TIME AVG. FORCE        1.90    
 ALL FORCE     RESIDUALS ARE ZERO
 LARGEST INCREMENT OF DISP.        -1.261E-03   AT NODE       1046   DOF  3
 LARGEST CORRECTION TO DISP.       -6.056E-08   AT NODE       1046   DOF  1
          THE FORCE     EQUILIBRIUM RESPONSE WAS LINEAR IN THIS INCREMENT

 AVERAGE MOMENT                      0.00       TIME AVG. MOMENT       2.20    
                                                (FROM FORCE     FIELD)
 ALL MOMENT    RESIDUALS ARE ZERO
 LARGEST INCREMENT OF ROTATION     -5.000E-05   AT NODE        342   DOF  4
 LARGEST CORRECTION TO ROTATION    -9.010E-32   AT NODE        342   DOF  5
          THERE IS ZERO MOMENT    EVERYWHERE

 ITERATION SUMMARY FOR THE INCREMENT:   1 TOTAL ITERATIONS, OF WHICH
   0 ARE SEVERE DISCONTINUITY ITERATIONS AND  1 ARE EQUILIBRIUM ITERATIONS.

 TIME INCREMENT COMPLETED  5.000E-02,  FRACTION OF STEP COMPLETED  0.600    
 STEP TIME COMPLETED       0.600    ,  TOTAL TIME COMPLETED        0.600    


  INCREMENT    13 STARTS. ATTEMPT NUMBER  1, TIME INCREMENT  5.000E-02

  NUMBER OF EQUATIONS =      1170     NUMBER OF RHS =    1
  NUMBER OF FLOATING PT. OPERATIONS =  6.72E+06

  USING THE DIRECT SOLVER WITH  42 PROCESSORS

     CHECK POINT   START OF SOLVER    

     CHECK POINT  END OF SOLVER       

       ELAPSED USER TIME (SEC)      =  0.27000    
       ELAPSED SYSTEM TIME (SEC)    =  5.00000E-02
       ELAPSED TOTAL CPU TIME (SEC) =  0.32000    
       ELAPSED WALLCLOCK TIME (SEC) =          0

               CONVERGENCE CHECKS FOR EQUILIBRIUM ITERATION     1


 AVERAGE FORCE                       3.47       TIME AVG. FORCE        2.03    
 ALL FORCE     RESIDUALS ARE ZERO
 LARGEST INCREMENT OF DISP.        -1.261E-03   AT NODE       1046   DOF  3
 LARGEST CORRECTION TO DISP.       -6.056E-08   AT NODE       1046   DOF  1
          THE FORCE     EQUILIBRIUM RESPONSE WAS LINEAR IN THIS INCREMENT

 AVERAGE MOMENT                      0.00       TIME AVG. MOMENT       2.36    
                                                (FROM FORCE     FIELD)
 ALL MOMENT    RESIDUALS ARE ZERO
 LARGEST INCREMENT OF ROTATION     -5.000E-05   AT NODE        342   DOF  4
 LARGEST CORRECTION TO ROTATION    -1.084E-19   AT NODE        342   DOF  4
          THERE IS ZERO MOMENT    EVERYWHERE

 ITERATION SUMMARY FOR THE INCREMENT:   1 TOTAL ITERATIONS, OF WHICH
   0 ARE SEVERE DISCONTINUITY ITERATIONS AND  1 ARE EQUILIBRIUM ITERATIONS.

 TIME INCREMENT COMPLETED  5.000E-02,  FRACTION OF STEP COMPLETED  0.650    
 STEP TIME COMPLETED       0.650    ,  TOTAL TIME COMPLETED        0.650    


  INCREMENT    14 STARTS. ATTEMPT NUMBER  1, TIME INCREMENT  5.000E-02

  NUMBER OF EQUATIONS =      1170     NUMBER OF RHS =    1
  NUMBER OF FLOATING PT. OPERATIONS =  6.72E+06

  USING THE DIRECT SOLVER WITH  42 PROCESSORS

     CHECK POINT   START OF SOLVER    

     CHECK POINT  END OF SOLVER       

       ELAPSED USER TIME (SEC)      =  0.22000    
       ELAPSED SYSTEM TIME (SEC)    =  7.00000E-02
       ELAPSED TOTAL CPU TIME (SEC) =  0.29000    
       ELAPSED WALLCLOCK TIME (SEC) =          0

               CONVERGENCE CHECKS FOR EQUILIBRIUM ITERATION     1


 AVERAGE FORCE                       3.68       TIME AVG. FORCE        2.14    
 ALL FORCE     RESIDUALS ARE ZERO
 LARGEST INCREMENT OF DISP.        -1.261E-03   AT NODE       1046   DOF  3
 LARGEST CORRECTION TO DISP.       -6.056E-08   AT NODE       1046   DOF  2
          THE FORCE     EQUILIBRIUM RESPONSE WAS LINEAR IN THIS INCREMENT

 AVERAGE MOMENT                      0.00       TIME AVG. MOMENT       2.51    
                                                (FROM FORCE     FIELD)
 ALL MOMENT    RESIDUALS ARE ZERO
 LARGEST INCREMENT OF ROTATION     -5.000E-05   AT NODE        342   DOF  4
 LARGEST CORRECTION TO ROTATION    -2.168E-19   AT NODE        342   DOF  5
          THERE IS ZERO MOMENT    EVERYWHERE

 ITERATION SUMMARY FOR THE INCREMENT:   1 TOTAL ITERATIONS, OF WHICH
   0 ARE SEVERE DISCONTINUITY ITERATIONS AND  1 ARE EQUILIBRIUM ITERATIONS.

 TIME INCREMENT COMPLETED  5.000E-02,  FRACTION OF STEP COMPLETED  0.700    
 STEP TIME COMPLETED       0.700    ,  TOTAL TIME COMPLETED        0.700    


  INCREMENT    15 STARTS. ATTEMPT NUMBER  1, TIME INCREMENT  5.000E-02

  NUMBER OF EQUATIONS =      1170     NUMBER OF RHS =    1
  NUMBER OF FLOATING PT. OPERATIONS =  6.72E+06

  USING THE DIRECT SOLVER WITH  42 PROCESSORS

     CHECK POINT   START OF SOLVER    

     CHECK POINT  END OF SOLVER       

       ELAPSED USER TIME (SEC)      =  0.27000    
       ELAPSED SYSTEM TIME (SEC)    =  7.00000E-02
       ELAPSED TOTAL CPU TIME (SEC) =  0.34000    
       ELAPSED WALLCLOCK TIME (SEC) =          0

               CONVERGENCE CHECKS FOR EQUILIBRIUM ITERATION     1


 AVERAGE FORCE                       3.89       TIME AVG. FORCE        2.26    
 ALL FORCE     RESIDUALS ARE ZERO
 LARGEST INCREMENT OF DISP.        -1.261E-03   AT NODE       1046   DOF  3
 LARGEST CORRECTION TO DISP.       -6.056E-08   AT NODE       1046   DOF  1
          THE FORCE     EQUILIBRIUM RESPONSE WAS LINEAR IN THIS INCREMENT

 AVERAGE MOMENT                      0.00       TIME AVG. MOMENT       2.65    
                                                (FROM FORCE     FIELD)
 ALL MOMENT    RESIDUALS ARE ZERO
 LARGEST INCREMENT OF ROTATION     -5.000E-05   AT NODE        342   DOF  4
 LARGEST CORRECTION TO ROTATION    -1.084E-19   AT NODE        342   DOF  4
          THERE IS ZERO MOMENT    EVERYWHERE

 ITERATION SUMMARY FOR THE INCREMENT:   1 TOTAL ITERATIONS, OF WHICH
   0 ARE SEVERE DISCONTINUITY ITERATIONS AND  1 ARE EQUILIBRIUM ITERATIONS.

 TIME INCREMENT COMPLETED  5.000E-02,  FRACTION OF STEP COMPLETED  0.750    
 STEP TIME COMPLETED       0.750    ,  TOTAL TIME COMPLETED        0.750    


  INCREMENT    16 STARTS. ATTEMPT NUMBER  1, TIME INCREMENT  5.000E-02

  NUMBER OF EQUATIONS =      1170     NUMBER OF RHS =    1
  NUMBER OF FLOATING PT. OPERATIONS =  6.72E+06

  USING THE DIRECT SOLVER WITH  42 PROCESSORS

     CHECK POINT   START OF SOLVER    

     CHECK POINT  END OF SOLVER       

       ELAPSED USER TIME (SEC)      =  0.25000    
       ELAPSED SYSTEM TIME (SEC)    =  8.00000E-02
       ELAPSED TOTAL CPU TIME (SEC) =  0.33000    
       ELAPSED WALLCLOCK TIME (SEC) =          1

               CONVERGENCE CHECKS FOR EQUILIBRIUM ITERATION     1


 AVERAGE FORCE                       4.09       TIME AVG. FORCE        2.37    
 ALL FORCE     RESIDUALS ARE ZERO
 LARGEST INCREMENT OF DISP.        -1.261E-03   AT NODE       1046   DOF  3
 LARGEST CORRECTION TO DISP.       -6.056E-08   AT NODE       1046   DOF  1
          THE FORCE     EQUILIBRIUM RESPONSE WAS LINEAR IN THIS INCREMENT

 AVERAGE MOMENT                      0.00       TIME AVG. MOMENT       2.80    
                                                (FROM FORCE     FIELD)
 ALL MOMENT    RESIDUALS ARE ZERO
 LARGEST INCREMENT OF ROTATION     -5.000E-05   AT NODE        342   DOF  4
 LARGEST CORRECTION TO ROTATION    -1.113E-31   AT NODE        342   DOF  5
          THERE IS ZERO MOMENT    EVERYWHERE

 ITERATION SUMMARY FOR THE INCREMENT:   1 TOTAL ITERATIONS, OF WHICH
   0 ARE SEVERE DISCONTINUITY ITERATIONS AND  1 ARE EQUILIBRIUM ITERATIONS.

 TIME INCREMENT COMPLETED  5.000E-02,  FRACTION OF STEP COMPLETED  0.800    
 STEP TIME COMPLETED       0.800    ,  TOTAL TIME COMPLETED        0.800    


  INCREMENT    17 STARTS. ATTEMPT NUMBER  1, TIME INCREMENT  5.000E-02

  NUMBER OF EQUATIONS =      1170     NUMBER OF RHS =    1
  NUMBER OF FLOATING PT. OPERATIONS =  6.72E+06

  USING THE DIRECT SOLVER WITH  42 PROCESSORS

     CHECK POINT   START OF SOLVER    

     CHECK POINT  END OF SOLVER       

       ELAPSED USER TIME (SEC)      =  0.27000    
       ELAPSED SYSTEM TIME (SEC)    =  4.00000E-02
       ELAPSED TOTAL CPU TIME (SEC) =  0.31000    
       ELAPSED WALLCLOCK TIME (SEC) =          0

               CONVERGENCE CHECKS FOR EQUILIBRIUM ITERATION     1


 AVERAGE FORCE                       4.29       TIME AVG. FORCE        2.49    
 ALL FORCE     RESIDUALS ARE ZERO
 LARGEST INCREMENT OF DISP.        -1.261E-03   AT NODE       1046   DOF  3
 LARGEST CORRECTION TO DISP.       -6.056E-08   AT NODE       1046   DOF  1
          THE FORCE     EQUILIBRIUM RESPONSE WAS LINEAR IN THIS INCREMENT

 AVERAGE MOMENT                      0.00       TIME AVG. MOMENT       2.94    
                                                (FROM FORCE     FIELD)
 ALL MOMENT    RESIDUALS ARE ZERO
 LARGEST INCREMENT OF ROTATION     -5.000E-05   AT NODE        342   DOF  4
 LARGEST CORRECTION TO ROTATION    -1.084E-19   AT NODE        342   DOF  5
          THERE IS ZERO MOMENT    EVERYWHERE

 ITERATION SUMMARY FOR THE INCREMENT:   1 TOTAL ITERATIONS, OF WHICH
   0 ARE SEVERE DISCONTINUITY ITERATIONS AND  1 ARE EQUILIBRIUM ITERATIONS.

 TIME INCREMENT COMPLETED  5.000E-02,  FRACTION OF STEP COMPLETED  0.850    
 STEP TIME COMPLETED       0.850    ,  TOTAL TIME COMPLETED        0.850    


  INCREMENT    18 STARTS. ATTEMPT NUMBER  1, TIME INCREMENT  5.000E-02

  NUMBER OF EQUATIONS =      1170     NUMBER OF RHS =    1
  NUMBER OF FLOATING PT. OPERATIONS =  6.72E+06

  USING THE DIRECT SOLVER WITH  42 PROCESSORS

     CHECK POINT   START OF SOLVER    

     CHECK POINT  END OF SOLVER       

       ELAPSED USER TIME (SEC)      =  0.21000    
       ELAPSED SYSTEM TIME (SEC)    =  0.10000    
       ELAPSED TOTAL CPU TIME (SEC) =  0.31000    
       ELAPSED WALLCLOCK TIME (SEC) =          0

               CONVERGENCE CHECKS FOR EQUILIBRIUM ITERATION     1


 AVERAGE FORCE                       4.48       TIME AVG. FORCE        2.60    
 ALL FORCE     RESIDUALS ARE ZERO
 LARGEST INCREMENT OF DISP.        -1.261E-03   AT NODE       1046   DOF  3
 LARGEST CORRECTION TO DISP.       -6.056E-08   AT NODE       1046   DOF  2
          THE FORCE     EQUILIBRIUM RESPONSE WAS LINEAR IN THIS INCREMENT

 AVERAGE MOMENT                      0.00       TIME AVG. MOMENT       3.08    
                                                (FROM FORCE     FIELD)
 ALL MOMENT    RESIDUALS ARE ZERO
 LARGEST INCREMENT OF ROTATION     -5.000E-05   AT NODE        342   DOF  4
 LARGEST CORRECTION TO ROTATION    -3.253E-19   AT NODE        342   DOF  4
          THERE IS ZERO MOMENT    EVERYWHERE

 ITERATION SUMMARY FOR THE INCREMENT:   1 TOTAL ITERATIONS, OF WHICH
   0 ARE SEVERE DISCONTINUITY ITERATIONS AND  1 ARE EQUILIBRIUM ITERATIONS.

 TIME INCREMENT COMPLETED  5.000E-02,  FRACTION OF STEP COMPLETED  0.900    
 STEP TIME COMPLETED       0.900    ,  TOTAL TIME COMPLETED        0.900    


  INCREMENT    19 STARTS. ATTEMPT NUMBER  1, TIME INCREMENT  5.000E-02

  NUMBER OF EQUATIONS =      1170     NUMBER OF RHS =    1
  NUMBER OF FLOATING PT. OPERATIONS =  6.72E+06

  USING THE DIRECT SOLVER WITH  42 PROCESSORS

     CHECK POINT   START OF SOLVER    

     CHECK POINT  END OF SOLVER       

       ELAPSED USER TIME (SEC)      =  0.21000    
       ELAPSED SYSTEM TIME (SEC)    =  9.00000E-02
       ELAPSED TOTAL CPU TIME (SEC) =  0.30000    
       ELAPSED WALLCLOCK TIME (SEC) =          0

               CONVERGENCE CHECKS FOR EQUILIBRIUM ITERATION     1


 AVERAGE FORCE                       4.67       TIME AVG. FORCE        2.71    
 ALL FORCE     RESIDUALS ARE ZERO
 LARGEST INCREMENT OF DISP.        -1.261E-03   AT NODE       1046   DOF  3
 LARGEST CORRECTION TO DISP.       -6.056E-08   AT NODE       1046   DOF  1
          THE FORCE     EQUILIBRIUM RESPONSE WAS LINEAR IN THIS INCREMENT

 AVERAGE MOMENT                      0.00       TIME AVG. MOMENT       3.22    
                                                (FROM FORCE     FIELD)
 ALL MOMENT    RESIDUALS ARE ZERO
 LARGEST INCREMENT OF ROTATION     -5.000E-05   AT NODE        342   DOF  4
 LARGEST CORRECTION TO ROTATION    -2.168E-19   AT NODE        342   DOF  5
          THERE IS ZERO MOMENT    EVERYWHERE

 ITERATION SUMMARY FOR THE INCREMENT:   1 TOTAL ITERATIONS, OF WHICH
   0 ARE SEVERE DISCONTINUITY ITERATIONS AND  1 ARE EQUILIBRIUM ITERATIONS.

 TIME INCREMENT COMPLETED  5.000E-02,  FRACTION OF STEP COMPLETED  0.950    
 STEP TIME COMPLETED       0.950    ,  TOTAL TIME COMPLETED        0.950    


  INCREMENT    20 STARTS. ATTEMPT NUMBER  1, TIME INCREMENT  5.000E-02

  NUMBER OF EQUATIONS =      1170     NUMBER OF RHS =    1
  NUMBER OF FLOATING PT. OPERATIONS =  6.72E+06

  USING THE DIRECT SOLVER WITH  42 PROCESSORS

     CHECK POINT   START OF SOLVER    

     CHECK POINT  END OF SOLVER       

       ELAPSED USER TIME (SEC)      =  0.22000    
       ELAPSED SYSTEM TIME (SEC)    =  9.00000E-02
       ELAPSED TOTAL CPU TIME (SEC) =  0.31000    
       ELAPSED WALLCLOCK TIME (SEC) =          0

               CONVERGENCE CHECKS FOR EQUILIBRIUM ITERATION     1


 AVERAGE FORCE                       4.86       TIME AVG. FORCE        2.81    
 ALL FORCE     RESIDUALS ARE ZERO
 LARGEST INCREMENT OF DISP.        -1.261E-03   AT NODE       1046   DOF  3
 LARGEST CORRECTION TO DISP.       -6.056E-08   AT NODE       1046   DOF  2
          THE FORCE     EQUILIBRIUM RESPONSE WAS LINEAR IN THIS INCREMENT

 AVERAGE MOMENT                      0.00       TIME AVG. MOMENT       3.35    
                                                (FROM FORCE     FIELD)
 ALL MOMENT    RESIDUALS ARE ZERO
 LARGEST INCREMENT OF ROTATION     -5.000E-05   AT NODE        342   DOF  4
 LARGEST CORRECTION TO ROTATION    -7.454E-20   AT NODE        342   DOF  4
          THERE IS ZERO MOMENT    EVERYWHERE

 ITERATION SUMMARY FOR THE INCREMENT:   1 TOTAL ITERATIONS, OF WHICH
   0 ARE SEVERE DISCONTINUITY ITERATIONS AND  1 ARE EQUILIBRIUM ITERATIONS.

 TIME INCREMENT COMPLETED  5.000E-02,  FRACTION OF STEP COMPLETED   1.00    
 STEP TIME COMPLETED        1.00    ,  TOTAL TIME COMPLETED         1.00    
1

   Abaqus 2021                                  Date 22-Feb-2023   Time 18:59:00
   For use by UNIVERSITAET BERN under license from Dassault Systemes or its subsidiary.

                                                                                 
                                                                                 
 STEP    2     INCREMENT     1     STEP TIME    0.00    


                        S T E P       2     S T A T I C   A N A L Y S I S


                                                                                          

     AUTOMATIC TIME CONTROL WITH -
          A SUGGESTED INITIAL TIME INCREMENT OF                5.000E-02
          AND A TOTAL TIME PERIOD OF                            1.00    
          THE MINIMUM TIME INCREMENT ALLOWED IS                5.000E-05
          THE MAXIMUM TIME INCREMENT ALLOWED IS                5.000E-02

     LINEAR EQUATION SOLVER TYPE         DIRECT SPARSE

 CONVERGENCE TOLERANCE PARAMETERS FOR FORCE    
     CRITERION FOR RESIDUAL FORCE     FOR A NONLINEAR PROBLEM          5.000E-03
     CRITERION FOR DISP.    CORRECTION IN A NONLINEAR PROBLEM          1.000E-02
     INIT. VALUE OF TIME AVG. FORCE     IS TIME AVG. FORCE     IN PREVIOUS STEP
     AVERAGE FORCE     IS TIME AVERAGE FORCE    
     ALTERNATE CRIT. FOR RESIDUAL FORCE     FOR A NONLINEAR PROBLEM    2.000E-02
     CRITERION FOR ZERO FORCE     RELATIVE TO TIME AVRG. FORCE         1.000E-05
     CRITERION FOR RESIDUAL FORCE     WHEN THERE IS ZERO FLUX          1.000E-05
     CRITERION FOR DISP.    CORRECTION WHEN THERE IS ZERO FLUX         1.000E-03
     CRITERION FOR RESIDUAL FORCE     FOR A LINEAR INCREMENT           1.000E-08
     FIELD CONVERSION RATIO                                             1.00    
     CRITERION FOR ZERO FORCE     REL. TO TIME AVRG. MAX. FORCE        1.000E-05
     CRITERION FOR ZERO DISP.    RELATIVE TO CHARACTERISTIC LENGTH     1.000E-08

 CONVERGENCE TOLERANCE PARAMETERS FOR MOMENT   
     CRITERION FOR RESIDUAL MOMENT    FOR A NONLINEAR PROBLEM          5.000E-03
     CRITERION FOR ROTATION CORRECTION IN A NONLINEAR PROBLEM          1.000E-02
     INIT. VALUE OF TIME AVG. MOMENT    IS TIME AVG. MOMENT    IN PREVIOUS STEP
     AVERAGE MOMENT    IS TIME AVERAGE MOMENT   
     ALTERNATE CRIT. FOR RESIDUAL MOMENT    FOR A NONLINEAR PROBLEM    2.000E-02
     CRITERION FOR ZERO MOMENT    RELATIVE TO TIME AVRG. MOMENT        1.000E-05
     CRITERION FOR RESIDUAL MOMENT    WHEN THERE IS ZERO FLUX          1.000E-05
     CRITERION FOR ROTATION CORRECTION WHEN THERE IS ZERO FLUX         1.000E-03
     CRITERION FOR RESIDUAL MOMENT    FOR A LINEAR INCREMENT           1.000E-08
     FIELD CONVERSION RATIO                                             1.00    
     CRITERION FOR ZERO MOMENT    REL. TO TIME AVRG. MAX. MOMENT       1.000E-05

     VOLUMETRIC STRAIN COMPATIBILITY TOLERANCE FOR HYBRID SOLIDS       1.000E-05
     AXIAL STRAIN COMPATIBILITY TOLERANCE FOR HYBRID BEAMS             1.000E-05
     TRANS. SHEAR STRAIN COMPATIBILITY TOLERANCE FOR HYBRID BEAMS      1.000E-05
     SOFT CONTACT CONSTRAINT COMPATIBILITY TOLERANCE FOR P>P0          5.000E-03
     SOFT CONTACT CONSTRAINT COMPATIBILITY TOLERANCE FOR P=0.0         0.100    
     CONTACT FORCE ERROR TOLERANCE FOR CONVERT SDI=YES                 1.00    
     DISPLACEMENT COMPATIBILITY TOLERANCE FOR DCOUP ELEMENTS           1.000E-05
     ROTATION COMPATIBILITY TOLERANCE FOR DCOUP ELEMENTS               1.000E-05

 EQUILIBRIUM WILL BE CHECKED FOR SEVERE DISCONTINUITY ITERATIONS

 TIME INCREMENTATION CONTROL PARAMETERS:
     FIRST EQUILIBRIUM ITERATION FOR CONSECUTIVE DIVERGENCE CHECK              4
     EQUILIBRIUM ITERATION AT WHICH LOG. CONVERGENCE RATE CHECK BEGINS         8
     EQUILIBRIUM ITERATION AFTER WHICH ALTERNATE RESIDUAL IS USED              9
     MAXIMUM EQUILIBRIUM ITERATIONS ALLOWED                                   16
     EQUILIBRIUM ITERATION COUNT FOR CUT-BACK IN NEXT INCREMENT               10
     MAXIMUM EQUILIB. ITERS IN TWO INCREMENTS FOR TIME INCREMENT INCREASE      4
     MAXIMUM ITERATIONS FOR SEVERE DISCONTINUITIES                            50
     MAXIMUM ATTEMPTS ALLOWED IN AN INCREMENT                                  5
     MAXIMUM DISCON. ITERS IN TWO INCREMENTS FOR TIME INCREMENT INCREASE      50
     MAXIMUM CONTACT AUGMENTATIONS FOR *SURFACE BEHAVIOR,AUGMENTED LAGRANGE   50
     CUT-BACK FACTOR AFTER DIVERGENCE                                 0.2500    
     CUT-BACK FACTOR FOR TOO SLOW CONVERGENCE                         0.5000    
     CUT-BACK FACTOR AFTER TOO MANY EQUILIBRIUM ITERATIONS            0.7500    
     CUT-BACK FACTOR AFTER TOO MANY SEVERE DISCONTINUITY ITERATIONS   0.2500    
     CUT-BACK FACTOR AFTER PROBLEMS IN ELEMENT ASSEMBLY               0.2500    
     INCREASE FACTOR AFTER TWO INCREMENTS THAT CONVERGE QUICKLY        1.500    
     MAX. TIME INCREMENT INCREASE FACTOR ALLOWED                       1.500    
     MAX. TIME INCREMENT INCREASE FACTOR ALLOWED (DYNAMICS)            1.250    
     MAX. TIME INCREMENT INCREASE FACTOR ALLOWED (DIFFUSION)           2.000    
     MINIMUM TIME INCREMENT RATIO FOR EXTRAPOLATION TO OCCUR          0.1000    
     MAX. RATIO OF TIME INCREMENT TO STABILITY LIMIT                   1.000    
     FRACTION OF STABILITY LIMIT FOR NEW TIME INCREMENT               0.9500    
     TIME INCREMENT INCREASE FACTOR BEFORE A TIME POINT                1.000    
     GLOBAL STABILIZATION CONTROL IS NOT USED

          PRINT OF INCREMENT NUMBER, TIME, ETC., EVERY    1  INCREMENTS

     THE MAXIMUM NUMBER OF INCREMENTS IN THIS STEP IS                    1000

          LARGE DISPLACEMENT THEORY WILL BE USED

          UNSYMMETRIC MATRIX STORAGE AND SOLUTION WILL BE USED

     LINEAR EXTRAPOLATION WILL BE USED

     CHARACTERISTIC ELEMENT LENGTH      1.24    

     DETAILS REGARDING ACTUAL SOLUTION WAVEFRONT REQUESTED

     DETAILED OUTPUT OF DIAGNOSTICS TO DATABASE REQUESTED

     PRINT OF INCREMENT NUMBER, TIME, ETC., TO THE MESSAGE FILE EVERY     1  INCREMENTS

     ELEMENT OPERATIONS WILL BE CARRIED OUT IN PARALLEL USING  42 PROCESSORS

     COLLECTING STEP CONSTRAINT INFORMATION FOR OVERCONSTRAINT CHECKS


  INCREMENT     1 STARTS. ATTEMPT NUMBER  1, TIME INCREMENT  5.000E-02
 
     INITIAL ELEMENT LOAD BALANCE
            PROCESS    1   THREAD     NUMBER OF ELEMENTS
                              1            15
                              2            8
                              3            8
                              4            8
                              5            8
                              6            8
                              7            8
                              8            8
                              9            8
                             10            8
                             11            8
                             12            8
                             13            8
                             14            8
                             15            8
                             16            8
                             17            8
                             18            8
                             19            8
                             20            8
                             21            8
                             22            8
                             23            8
                             24            8
                             25            8
                             26            8
                             27            8
                             28            8
                             29            8
                             30            8
                             31            8
                             32            8
                             33            8
                             34            8
                             35            8
                             36            8
                             37            8
                             38            8
                             39            8
                             40            8
                             41            8
                             42            8

  NUMBER OF EQUATIONS =      1170     NUMBER OF RHS =    1
  NUMBER OF FLOATING PT. OPERATIONS =  6.72E+06

  USING THE DIRECT SOLVER WITH  42 PROCESSORS

     CHECK POINT   START OF SOLVER    

     CHECK POINT  END OF SOLVER       

       ELAPSED USER TIME (SEC)      =  0.29000    
       ELAPSED SYSTEM TIME (SEC)    =  8.00000E-02
       ELAPSED TOTAL CPU TIME (SEC) =  0.37000    
       ELAPSED WALLCLOCK TIME (SEC) =          0

               CONVERGENCE CHECKS FOR EQUILIBRIUM ITERATION     1


 AVERAGE FORCE                       3.72       TIME AVG. FORCE        3.72    
 ALL FORCE     RESIDUALS ARE ZERO
 LARGEST INCREMENT OF DISP.         6.532E-03   AT NODE       1046   DOF  3
 LARGEST CORRECTION TO DISP.        6.532E-03   AT NODE       1046   DOF  3
          THE FORCE     EQUILIBRIUM RESPONSE WAS LINEAR IN THIS INCREMENT

 AVERAGE MOMENT                      0.00       TIME AVG. MOMENT       4.61    
                                                (FROM FORCE     FIELD)
 ALL MOMENT    RESIDUALS ARE ZERO
 LARGEST INCREMENT OF ROTATION      3.500E-04   AT NODE        342   DOF  4
 LARGEST CORRECTION TO ROTATION     3.500E-04   AT NODE        342   DOF  4
          THERE IS ZERO MOMENT    EVERYWHERE

 ITERATION SUMMARY FOR THE INCREMENT:   1 TOTAL ITERATIONS, OF WHICH
   0 ARE SEVERE DISCONTINUITY ITERATIONS AND  1 ARE EQUILIBRIUM ITERATIONS.

 TIME INCREMENT COMPLETED  5.000E-02,  FRACTION OF STEP COMPLETED  5.000E-02
 STEP TIME COMPLETED       5.000E-02,  TOTAL TIME COMPLETED         1.05    


  INCREMENT     2 STARTS. ATTEMPT NUMBER  1, TIME INCREMENT  5.000E-02

  NUMBER OF EQUATIONS =      1170     NUMBER OF RHS =    1
  NUMBER OF FLOATING PT. OPERATIONS =  6.72E+06

  USING THE DIRECT SOLVER WITH  42 PROCESSORS

     CHECK POINT   START OF SOLVER    

     CHECK POINT  END OF SOLVER       

       ELAPSED USER TIME (SEC)      =  0.25000    
       ELAPSED SYSTEM TIME (SEC)    =  8.00000E-02
       ELAPSED TOTAL CPU TIME (SEC) =  0.33000    
       ELAPSED WALLCLOCK TIME (SEC) =          0

               CONVERGENCE CHECKS FOR EQUILIBRIUM ITERATION     1


 AVERAGE FORCE                       3.06       TIME AVG. FORCE        3.39    
 ALL FORCE     RESIDUALS ARE ZERO
 LARGEST INCREMENT OF DISP.         6.531E-03   AT NODE       1046   DOF  3
 LARGEST CORRECTION TO DISP.       -2.131E-06   AT NODE       1046   DOF  2
          THE FORCE     EQUILIBRIUM RESPONSE WAS LINEAR IN THIS INCREMENT

 AVERAGE MOMENT                      0.00       TIME AVG. MOMENT       4.61    
                                                (FROM FORCE     FIELD)
 ALL MOMENT    RESIDUALS ARE ZERO
 LARGEST INCREMENT OF ROTATION      3.500E-04   AT NODE        342   DOF  4
 LARGEST CORRECTION TO ROTATION     8.132E-20   AT NODE        342   DOF  5
          THERE IS ZERO MOMENT    EVERYWHERE

 ITERATION SUMMARY FOR THE INCREMENT:   1 TOTAL ITERATIONS, OF WHICH
   0 ARE SEVERE DISCONTINUITY ITERATIONS AND  1 ARE EQUILIBRIUM ITERATIONS.

 TIME INCREMENT COMPLETED  5.000E-02,  FRACTION OF STEP COMPLETED  0.100    
 STEP TIME COMPLETED       0.100    ,  TOTAL TIME COMPLETED         1.10    


  INCREMENT     3 STARTS. ATTEMPT NUMBER  1, TIME INCREMENT  5.000E-02

  NUMBER OF EQUATIONS =      1170     NUMBER OF RHS =    1
  NUMBER OF FLOATING PT. OPERATIONS =  6.72E+06

  USING THE DIRECT SOLVER WITH  42 PROCESSORS

     CHECK POINT   START OF SOLVER    

     CHECK POINT  END OF SOLVER       

       ELAPSED USER TIME (SEC)      =  0.31000    
       ELAPSED SYSTEM TIME (SEC)    =  6.00000E-02
       ELAPSED TOTAL CPU TIME (SEC) =  0.37000    
       ELAPSED WALLCLOCK TIME (SEC) =          0

               CONVERGENCE CHECKS FOR EQUILIBRIUM ITERATION     1


 AVERAGE FORCE                       2.78       TIME AVG. FORCE        3.19    
 ALL FORCE     RESIDUALS ARE ZERO
 LARGEST INCREMENT OF DISP.         6.531E-03   AT NODE       1046   DOF  3
 LARGEST CORRECTION TO DISP.       -2.131E-06   AT NODE       1046   DOF  2
          THE FORCE     EQUILIBRIUM RESPONSE WAS LINEAR IN THIS INCREMENT

 AVERAGE MOMENT                      0.00       TIME AVG. MOMENT       4.20    
                                                (FROM FORCE     FIELD)
 ALL MOMENT    RESIDUALS ARE ZERO
 LARGEST INCREMENT OF ROTATION      3.500E-04   AT NODE        342   DOF  4
 LARGEST CORRECTION TO ROTATION    -1.084E-19   AT NODE        342   DOF  5
          THERE IS ZERO MOMENT    EVERYWHERE

 ITERATION SUMMARY FOR THE INCREMENT:   1 TOTAL ITERATIONS, OF WHICH
   0 ARE SEVERE DISCONTINUITY ITERATIONS AND  1 ARE EQUILIBRIUM ITERATIONS.

 TIME INCREMENT COMPLETED  5.000E-02,  FRACTION OF STEP COMPLETED  0.150    
 STEP TIME COMPLETED       0.150    ,  TOTAL TIME COMPLETED         1.15    


  INCREMENT     4 STARTS. ATTEMPT NUMBER  1, TIME INCREMENT  5.000E-02

  NUMBER OF EQUATIONS =      1170     NUMBER OF RHS =    1
  NUMBER OF FLOATING PT. OPERATIONS =  6.72E+06

  USING THE DIRECT SOLVER WITH  42 PROCESSORS

     CHECK POINT   START OF SOLVER    

     CHECK POINT  END OF SOLVER       

       ELAPSED USER TIME (SEC)      =  0.22000    
       ELAPSED SYSTEM TIME (SEC)    =  8.00000E-02
       ELAPSED TOTAL CPU TIME (SEC) =  0.30000    
       ELAPSED WALLCLOCK TIME (SEC) =          0

               CONVERGENCE CHECKS FOR EQUILIBRIUM ITERATION     1


 AVERAGE FORCE                       2.86       TIME AVG. FORCE        3.10    
 ALL FORCE     RESIDUALS ARE ZERO
 LARGEST INCREMENT OF DISP.         6.531E-03   AT NODE       1046   DOF  3
 LARGEST CORRECTION TO DISP.       -2.131E-06   AT NODE       1046   DOF  2
          THE FORCE     EQUILIBRIUM RESPONSE WAS LINEAR IN THIS INCREMENT

 AVERAGE MOMENT                      0.00       TIME AVG. MOMENT       3.94    
                                                (FROM FORCE     FIELD)
 ALL MOMENT    RESIDUALS ARE ZERO
 LARGEST INCREMENT OF ROTATION      3.500E-04   AT NODE        342   DOF  4
 LARGEST CORRECTION TO ROTATION    -2.711E-19   AT NODE        342   DOF  4
          THERE IS ZERO MOMENT    EVERYWHERE

 ITERATION SUMMARY FOR THE INCREMENT:   1 TOTAL ITERATIONS, OF WHICH
   0 ARE SEVERE DISCONTINUITY ITERATIONS AND  1 ARE EQUILIBRIUM ITERATIONS.

 TIME INCREMENT COMPLETED  5.000E-02,  FRACTION OF STEP COMPLETED  0.200    
 STEP TIME COMPLETED       0.200    ,  TOTAL TIME COMPLETED         1.20    


  INCREMENT     5 STARTS. ATTEMPT NUMBER  1, TIME INCREMENT  5.000E-02

  NUMBER OF EQUATIONS =      1170     NUMBER OF RHS =    1
  NUMBER OF FLOATING PT. OPERATIONS =  6.72E+06

  USING THE DIRECT SOLVER WITH  42 PROCESSORS

     CHECK POINT   START OF SOLVER    

     CHECK POINT  END OF SOLVER       

       ELAPSED USER TIME (SEC)      =  0.99000    
       ELAPSED SYSTEM TIME (SEC)    =  5.00000E-02
       ELAPSED TOTAL CPU TIME (SEC) =   1.0400    
       ELAPSED WALLCLOCK TIME (SEC) =          0

               CONVERGENCE CHECKS FOR EQUILIBRIUM ITERATION     1


 AVERAGE FORCE                       3.27       TIME AVG. FORCE        3.14    
 ALL FORCE     RESIDUALS ARE ZERO
 LARGEST INCREMENT OF DISP.         6.531E-03   AT NODE       1046   DOF  3
 LARGEST CORRECTION TO DISP.       -2.131E-06   AT NODE       1046   DOF  2
          THE FORCE     EQUILIBRIUM RESPONSE WAS LINEAR IN THIS INCREMENT

 AVERAGE MOMENT                      0.00       TIME AVG. MOMENT       3.84    
                                                (FROM FORCE     FIELD)
 ALL MOMENT    RESIDUALS ARE ZERO
 LARGEST INCREMENT OF ROTATION      3.500E-04   AT NODE        342   DOF  4
 LARGEST CORRECTION TO ROTATION    -2.711E-20   AT NODE        342   DOF  6
          THERE IS ZERO MOMENT    EVERYWHERE

 ITERATION SUMMARY FOR THE INCREMENT:   1 TOTAL ITERATIONS, OF WHICH
   0 ARE SEVERE DISCONTINUITY ITERATIONS AND  1 ARE EQUILIBRIUM ITERATIONS.

 TIME INCREMENT COMPLETED  5.000E-02,  FRACTION OF STEP COMPLETED  0.250    
 STEP TIME COMPLETED       0.250    ,  TOTAL TIME COMPLETED         1.25    


  INCREMENT     6 STARTS. ATTEMPT NUMBER  1, TIME INCREMENT  5.000E-02

  NUMBER OF EQUATIONS =      1170     NUMBER OF RHS =    1
  NUMBER OF FLOATING PT. OPERATIONS =  6.72E+06

  USING THE DIRECT SOLVER WITH  42 PROCESSORS

     CHECK POINT   START OF SOLVER    

     CHECK POINT  END OF SOLVER       

       ELAPSED USER TIME (SEC)      =  0.24000    
       ELAPSED SYSTEM TIME (SEC)    =  8.00000E-02
       ELAPSED TOTAL CPU TIME (SEC) =  0.32000    
       ELAPSED WALLCLOCK TIME (SEC) =          0

               CONVERGENCE CHECKS FOR EQUILIBRIUM ITERATION     1


 AVERAGE FORCE                       3.83       TIME AVG. FORCE        3.25    
 ALL FORCE     RESIDUALS ARE ZERO
 LARGEST INCREMENT OF DISP.         6.531E-03   AT NODE       1046   DOF  3
 LARGEST CORRECTION TO DISP.       -2.130E-06   AT NODE       1046   DOF  2
          THE FORCE     EQUILIBRIUM RESPONSE WAS LINEAR IN THIS INCREMENT

 AVERAGE MOMENT                      0.00       TIME AVG. MOMENT       3.88    
                                                (FROM FORCE     FIELD)
 ALL MOMENT    RESIDUALS ARE ZERO
 LARGEST INCREMENT OF ROTATION      3.500E-04   AT NODE        342   DOF  4
 LARGEST CORRECTION TO ROTATION     2.711E-20   AT NODE        342   DOF  6
          THERE IS ZERO MOMENT    EVERYWHERE

 ITERATION SUMMARY FOR THE INCREMENT:   1 TOTAL ITERATIONS, OF WHICH
   0 ARE SEVERE DISCONTINUITY ITERATIONS AND  1 ARE EQUILIBRIUM ITERATIONS.

 TIME INCREMENT COMPLETED  5.000E-02,  FRACTION OF STEP COMPLETED  0.300    
 STEP TIME COMPLETED       0.300    ,  TOTAL TIME COMPLETED         1.30    


  INCREMENT     7 STARTS. ATTEMPT NUMBER  1, TIME INCREMENT  5.000E-02

  NUMBER OF EQUATIONS =      1170     NUMBER OF RHS =    1
  NUMBER OF FLOATING PT. OPERATIONS =  6.72E+06

  USING THE DIRECT SOLVER WITH  42 PROCESSORS

     CHECK POINT   START OF SOLVER    

     CHECK POINT  END OF SOLVER       

       ELAPSED USER TIME (SEC)      =  0.70000    
       ELAPSED SYSTEM TIME (SEC)    =  5.00000E-02
       ELAPSED TOTAL CPU TIME (SEC) =  0.75000    
       ELAPSED WALLCLOCK TIME (SEC) =          0

               CONVERGENCE CHECKS FOR EQUILIBRIUM ITERATION     1


 AVERAGE FORCE                       4.39       TIME AVG. FORCE        3.42    
 ALL FORCE     RESIDUALS ARE ZERO
 LARGEST INCREMENT OF DISP.         6.530E-03   AT NODE       1046   DOF  3
 LARGEST CORRECTION TO DISP.       -2.130E-06   AT NODE       1046   DOF  2
          THE FORCE     EQUILIBRIUM RESPONSE WAS LINEAR IN THIS INCREMENT

 AVERAGE MOMENT                      0.00       TIME AVG. MOMENT       4.03    
                                                (FROM FORCE     FIELD)
 ALL MOMENT    RESIDUALS ARE ZERO
 LARGEST INCREMENT OF ROTATION      3.500E-04   AT NODE        342   DOF  4
 LARGEST CORRECTION TO ROTATION     4.337E-19   AT NODE        342   DOF  4
          THERE IS ZERO MOMENT    EVERYWHERE

 ITERATION SUMMARY FOR THE INCREMENT:   1 TOTAL ITERATIONS, OF WHICH
   0 ARE SEVERE DISCONTINUITY ITERATIONS AND  1 ARE EQUILIBRIUM ITERATIONS.

 TIME INCREMENT COMPLETED  5.000E-02,  FRACTION OF STEP COMPLETED  0.350    
 STEP TIME COMPLETED       0.350    ,  TOTAL TIME COMPLETED         1.35    


  INCREMENT     8 STARTS. ATTEMPT NUMBER  1, TIME INCREMENT  5.000E-02

  NUMBER OF EQUATIONS =      1170     NUMBER OF RHS =    1
  NUMBER OF FLOATING PT. OPERATIONS =  6.72E+06

  USING THE DIRECT SOLVER WITH  42 PROCESSORS

     CHECK POINT   START OF SOLVER    

     CHECK POINT  END OF SOLVER       

       ELAPSED USER TIME (SEC)      =  0.23000    
       ELAPSED SYSTEM TIME (SEC)    =  8.00000E-02
       ELAPSED TOTAL CPU TIME (SEC) =  0.31000    
       ELAPSED WALLCLOCK TIME (SEC) =          0

               CONVERGENCE CHECKS FOR EQUILIBRIUM ITERATION     1


 AVERAGE FORCE                       4.90       TIME AVG. FORCE        3.60    
 ALL FORCE     RESIDUALS ARE ZERO
 LARGEST INCREMENT OF DISP.         6.530E-03   AT NODE       1046   DOF  3
 LARGEST CORRECTION TO DISP.       -2.130E-06   AT NODE       1046   DOF  2
          THE FORCE     EQUILIBRIUM RESPONSE WAS LINEAR IN THIS INCREMENT

 AVERAGE MOMENT                      0.00       TIME AVG. MOMENT       4.23    
                                                (FROM FORCE     FIELD)
 ALL MOMENT    RESIDUALS ARE ZERO
 LARGEST INCREMENT OF ROTATION      3.500E-04   AT NODE        342   DOF  4
 LARGEST CORRECTION TO ROTATION    -4.337E-19   AT NODE        342   DOF  4
          THERE IS ZERO MOMENT    EVERYWHERE

 ITERATION SUMMARY FOR THE INCREMENT:   1 TOTAL ITERATIONS, OF WHICH
   0 ARE SEVERE DISCONTINUITY ITERATIONS AND  1 ARE EQUILIBRIUM ITERATIONS.

 TIME INCREMENT COMPLETED  5.000E-02,  FRACTION OF STEP COMPLETED  0.400    
 STEP TIME COMPLETED       0.400    ,  TOTAL TIME COMPLETED         1.40    


  INCREMENT     9 STARTS. ATTEMPT NUMBER  1, TIME INCREMENT  5.000E-02

  NUMBER OF EQUATIONS =      1170     NUMBER OF RHS =    1
  NUMBER OF FLOATING PT. OPERATIONS =  6.72E+06

  USING THE DIRECT SOLVER WITH  42 PROCESSORS

     CHECK POINT   START OF SOLVER    

     CHECK POINT  END OF SOLVER       

       ELAPSED USER TIME (SEC)      =  0.25000    
       ELAPSED SYSTEM TIME (SEC)    =  6.00000E-02
       ELAPSED TOTAL CPU TIME (SEC) =  0.31000    
       ELAPSED WALLCLOCK TIME (SEC) =          0

               CONVERGENCE CHECKS FOR EQUILIBRIUM ITERATION     1


 AVERAGE FORCE                       5.36       TIME AVG. FORCE        3.80    
 ALL FORCE     RESIDUALS ARE ZERO
 LARGEST INCREMENT OF DISP.         6.530E-03   AT NODE       1046   DOF  3
 LARGEST CORRECTION TO DISP.       -2.130E-06   AT NODE       1046   DOF  2
          THE FORCE     EQUILIBRIUM RESPONSE WAS LINEAR IN THIS INCREMENT

 AVERAGE MOMENT                      0.00       TIME AVG. MOMENT       4.46    
                                                (FROM FORCE     FIELD)
 ALL MOMENT    RESIDUALS ARE ZERO
 LARGEST INCREMENT OF ROTATION      3.500E-04   AT NODE        342   DOF  4
 LARGEST CORRECTION TO ROTATION    -1.626E-19   AT NODE        342   DOF  5
          THERE IS ZERO MOMENT    EVERYWHERE

 ITERATION SUMMARY FOR THE INCREMENT:   1 TOTAL ITERATIONS, OF WHICH
   0 ARE SEVERE DISCONTINUITY ITERATIONS AND  1 ARE EQUILIBRIUM ITERATIONS.

 TIME INCREMENT COMPLETED  5.000E-02,  FRACTION OF STEP COMPLETED  0.450    
 STEP TIME COMPLETED       0.450    ,  TOTAL TIME COMPLETED         1.45    


  INCREMENT    10 STARTS. ATTEMPT NUMBER  1, TIME INCREMENT  5.000E-02

  NUMBER OF EQUATIONS =      1170     NUMBER OF RHS =    1
  NUMBER OF FLOATING PT. OPERATIONS =  6.72E+06

  USING THE DIRECT SOLVER WITH  42 PROCESSORS

     CHECK POINT   START OF SOLVER    

     CHECK POINT  END OF SOLVER       

       ELAPSED USER TIME (SEC)      =  0.26000    
       ELAPSED SYSTEM TIME (SEC)    =  6.00000E-02
       ELAPSED TOTAL CPU TIME (SEC) =  0.32000    
       ELAPSED WALLCLOCK TIME (SEC) =          1

               CONVERGENCE CHECKS FOR EQUILIBRIUM ITERATION     1


 AVERAGE FORCE                       5.79       TIME AVG. FORCE        4.00    
 ALL FORCE     RESIDUALS ARE ZERO
 LARGEST INCREMENT OF DISP.         6.530E-03   AT NODE       1046   DOF  3
 LARGEST CORRECTION TO DISP.       -2.130E-06   AT NODE       1046   DOF  2
          THE FORCE     EQUILIBRIUM RESPONSE WAS LINEAR IN THIS INCREMENT

 AVERAGE MOMENT                      0.00       TIME AVG. MOMENT       4.70    
                                                (FROM FORCE     FIELD)
 ALL MOMENT    RESIDUALS ARE ZERO
 LARGEST INCREMENT OF ROTATION      3.500E-04   AT NODE        342   DOF  4
 LARGEST CORRECTION TO ROTATION    -2.168E-19   AT NODE        342   DOF  4
          THERE IS ZERO MOMENT    EVERYWHERE

 ITERATION SUMMARY FOR THE INCREMENT:   1 TOTAL ITERATIONS, OF WHICH
   0 ARE SEVERE DISCONTINUITY ITERATIONS AND  1 ARE EQUILIBRIUM ITERATIONS.

 TIME INCREMENT COMPLETED  5.000E-02,  FRACTION OF STEP COMPLETED  0.500    
 STEP TIME COMPLETED       0.500    ,  TOTAL TIME COMPLETED         1.50    


  INCREMENT    11 STARTS. ATTEMPT NUMBER  1, TIME INCREMENT  5.000E-02

  NUMBER OF EQUATIONS =      1170     NUMBER OF RHS =    1
  NUMBER OF FLOATING PT. OPERATIONS =  6.72E+06

  USING THE DIRECT SOLVER WITH  42 PROCESSORS

     CHECK POINT   START OF SOLVER    

     CHECK POINT  END OF SOLVER       

       ELAPSED USER TIME (SEC)      =  0.23000    
       ELAPSED SYSTEM TIME (SEC)    =  7.00000E-02
       ELAPSED TOTAL CPU TIME (SEC) =  0.30000    
       ELAPSED WALLCLOCK TIME (SEC) =          0

               CONVERGENCE CHECKS FOR EQUILIBRIUM ITERATION     1


 AVERAGE FORCE                       6.20       TIME AVG. FORCE        4.20    
 ALL FORCE     RESIDUALS ARE ZERO
 LARGEST INCREMENT OF DISP.         6.530E-03   AT NODE       1046   DOF  3
 LARGEST CORRECTION TO DISP.       -2.130E-06   AT NODE       1046   DOF  2
          THE FORCE     EQUILIBRIUM RESPONSE WAS LINEAR IN THIS INCREMENT

 AVERAGE MOMENT                      0.00       TIME AVG. MOMENT       4.95    
                                                (FROM FORCE     FIELD)
 ALL MOMENT    RESIDUALS ARE ZERO
 LARGEST INCREMENT OF ROTATION      3.500E-04   AT NODE        342   DOF  4
 LARGEST CORRECTION TO ROTATION     4.337E-19   AT NODE        342   DOF  4
          THERE IS ZERO MOMENT    EVERYWHERE

 ITERATION SUMMARY FOR THE INCREMENT:   1 TOTAL ITERATIONS, OF WHICH
   0 ARE SEVERE DISCONTINUITY ITERATIONS AND  1 ARE EQUILIBRIUM ITERATIONS.

 TIME INCREMENT COMPLETED  5.000E-02,  FRACTION OF STEP COMPLETED  0.550    
 STEP TIME COMPLETED       0.550    ,  TOTAL TIME COMPLETED         1.55    


  INCREMENT    12 STARTS. ATTEMPT NUMBER  1, TIME INCREMENT  5.000E-02

  NUMBER OF EQUATIONS =      1170     NUMBER OF RHS =    1
  NUMBER OF FLOATING PT. OPERATIONS =  6.72E+06

  USING THE DIRECT SOLVER WITH  42 PROCESSORS

     CHECK POINT   START OF SOLVER    

     CHECK POINT  END OF SOLVER       

       ELAPSED USER TIME (SEC)      =  0.27000    
       ELAPSED SYSTEM TIME (SEC)    =  4.00000E-02
       ELAPSED TOTAL CPU TIME (SEC) =  0.31000    
       ELAPSED WALLCLOCK TIME (SEC) =          0

               CONVERGENCE CHECKS FOR EQUILIBRIUM ITERATION     1


 AVERAGE FORCE                       6.61       TIME AVG. FORCE        4.40    
 ALL FORCE     RESIDUALS ARE ZERO
 LARGEST INCREMENT OF DISP.         6.529E-03   AT NODE       1046   DOF  3
 LARGEST CORRECTION TO DISP.       -2.130E-06   AT NODE       1046   DOF  2
          THE FORCE     EQUILIBRIUM RESPONSE WAS LINEAR IN THIS INCREMENT

 AVERAGE MOMENT                      0.00       TIME AVG. MOMENT       5.19    
                                                (FROM FORCE     FIELD)
 ALL MOMENT    RESIDUALS ARE ZERO
 LARGEST INCREMENT OF ROTATION      3.500E-04   AT NODE        342   DOF  4
 LARGEST CORRECTION TO ROTATION     4.337E-19   AT NODE        342   DOF  4
          THERE IS ZERO MOMENT    EVERYWHERE

 ITERATION SUMMARY FOR THE INCREMENT:   1 TOTAL ITERATIONS, OF WHICH
   0 ARE SEVERE DISCONTINUITY ITERATIONS AND  1 ARE EQUILIBRIUM ITERATIONS.

 TIME INCREMENT COMPLETED  5.000E-02,  FRACTION OF STEP COMPLETED  0.600    
 STEP TIME COMPLETED       0.600    ,  TOTAL TIME COMPLETED         1.60    


  INCREMENT    13 STARTS. ATTEMPT NUMBER  1, TIME INCREMENT  5.000E-02

  NUMBER OF EQUATIONS =      1170     NUMBER OF RHS =    1
  NUMBER OF FLOATING PT. OPERATIONS =  6.72E+06

  USING THE DIRECT SOLVER WITH  42 PROCESSORS

     CHECK POINT   START OF SOLVER    

     CHECK POINT  END OF SOLVER       

       ELAPSED USER TIME (SEC)      =  0.20000    
       ELAPSED SYSTEM TIME (SEC)    =  9.00000E-02
       ELAPSED TOTAL CPU TIME (SEC) =  0.29000    
       ELAPSED WALLCLOCK TIME (SEC) =          0

               CONVERGENCE CHECKS FOR EQUILIBRIUM ITERATION     1


 AVERAGE FORCE                       7.02       TIME AVG. FORCE        4.60    
 ALL FORCE     RESIDUALS ARE ZERO
 LARGEST INCREMENT OF DISP.         6.529E-03   AT NODE       1046   DOF  3
 LARGEST CORRECTION TO DISP.       -2.130E-06   AT NODE       1046   DOF  2
          THE FORCE     EQUILIBRIUM RESPONSE WAS LINEAR IN THIS INCREMENT

 AVERAGE MOMENT                      0.00       TIME AVG. MOMENT       5.44    
                                                (FROM FORCE     FIELD)
 ALL MOMENT    RESIDUALS ARE ZERO
 LARGEST INCREMENT OF ROTATION      3.500E-04   AT NODE        342   DOF  4
 LARGEST CORRECTION TO ROTATION     4.337E-19   AT NODE        342   DOF  4
          THERE IS ZERO MOMENT    EVERYWHERE

 ITERATION SUMMARY FOR THE INCREMENT:   1 TOTAL ITERATIONS, OF WHICH
   0 ARE SEVERE DISCONTINUITY ITERATIONS AND  1 ARE EQUILIBRIUM ITERATIONS.

 TIME INCREMENT COMPLETED  5.000E-02,  FRACTION OF STEP COMPLETED  0.650    
 STEP TIME COMPLETED       0.650    ,  TOTAL TIME COMPLETED         1.65    


  INCREMENT    14 STARTS. ATTEMPT NUMBER  1, TIME INCREMENT  5.000E-02

  NUMBER OF EQUATIONS =      1170     NUMBER OF RHS =    1
  NUMBER OF FLOATING PT. OPERATIONS =  6.72E+06

  USING THE DIRECT SOLVER WITH  42 PROCESSORS

     CHECK POINT   START OF SOLVER    

     CHECK POINT  END OF SOLVER       

       ELAPSED USER TIME (SEC)      =  0.21000    
       ELAPSED SYSTEM TIME (SEC)    =  0.12000    
       ELAPSED TOTAL CPU TIME (SEC) =  0.33000    
       ELAPSED WALLCLOCK TIME (SEC) =          0

               CONVERGENCE CHECKS FOR EQUILIBRIUM ITERATION     1


 AVERAGE FORCE                       7.40       TIME AVG. FORCE        4.80    
 ALL FORCE     RESIDUALS ARE ZERO
 LARGEST INCREMENT OF DISP.         6.529E-03   AT NODE       1046   DOF  3
 LARGEST CORRECTION TO DISP.       -2.129E-06   AT NODE       1046   DOF  2
          THE FORCE     EQUILIBRIUM RESPONSE WAS LINEAR IN THIS INCREMENT

 AVERAGE MOMENT                      0.00       TIME AVG. MOMENT       5.69    
                                                (FROM FORCE     FIELD)
 ALL MOMENT    RESIDUALS ARE ZERO
 LARGEST INCREMENT OF ROTATION      3.500E-04   AT NODE        342   DOF  4
 LARGEST CORRECTION TO ROTATION    -4.337E-19   AT NODE        342   DOF  4
          THERE IS ZERO MOMENT    EVERYWHERE

 ITERATION SUMMARY FOR THE INCREMENT:   1 TOTAL ITERATIONS, OF WHICH
   0 ARE SEVERE DISCONTINUITY ITERATIONS AND  1 ARE EQUILIBRIUM ITERATIONS.

 TIME INCREMENT COMPLETED  5.000E-02,  FRACTION OF STEP COMPLETED  0.700    
 STEP TIME COMPLETED       0.700    ,  TOTAL TIME COMPLETED         1.70    


  INCREMENT    15 STARTS. ATTEMPT NUMBER  1, TIME INCREMENT  5.000E-02

  NUMBER OF EQUATIONS =      1170     NUMBER OF RHS =    1
  NUMBER OF FLOATING PT. OPERATIONS =  6.72E+06

  USING THE DIRECT SOLVER WITH  42 PROCESSORS

     CHECK POINT   START OF SOLVER    

     CHECK POINT  END OF SOLVER       

       ELAPSED USER TIME (SEC)      =  0.23000    
       ELAPSED SYSTEM TIME (SEC)    =  7.00000E-02
       ELAPSED TOTAL CPU TIME (SEC) =  0.30000    
       ELAPSED WALLCLOCK TIME (SEC) =          0

               CONVERGENCE CHECKS FOR EQUILIBRIUM ITERATION     1


 AVERAGE FORCE                       7.79       TIME AVG. FORCE        5.00    
 ALL FORCE     RESIDUALS ARE ZERO
 LARGEST INCREMENT OF DISP.         6.529E-03   AT NODE       1046   DOF  3
 LARGEST CORRECTION TO DISP.       -2.129E-06   AT NODE       1046   DOF  2
          THE FORCE     EQUILIBRIUM RESPONSE WAS LINEAR IN THIS INCREMENT

 AVERAGE MOMENT                      0.00       TIME AVG. MOMENT       5.94    
                                                (FROM FORCE     FIELD)
 ALL MOMENT    RESIDUALS ARE ZERO
 LARGEST INCREMENT OF ROTATION      3.500E-04   AT NODE        342   DOF  4
 LARGEST CORRECTION TO ROTATION    -4.337E-19   AT NODE        342   DOF  4
          THERE IS ZERO MOMENT    EVERYWHERE

 ITERATION SUMMARY FOR THE INCREMENT:   1 TOTAL ITERATIONS, OF WHICH
   0 ARE SEVERE DISCONTINUITY ITERATIONS AND  1 ARE EQUILIBRIUM ITERATIONS.

 TIME INCREMENT COMPLETED  5.000E-02,  FRACTION OF STEP COMPLETED  0.750    
 STEP TIME COMPLETED       0.750    ,  TOTAL TIME COMPLETED         1.75    


  INCREMENT    16 STARTS. ATTEMPT NUMBER  1, TIME INCREMENT  5.000E-02

  NUMBER OF EQUATIONS =      1170     NUMBER OF RHS =    1
  NUMBER OF FLOATING PT. OPERATIONS =  6.72E+06

  USING THE DIRECT SOLVER WITH  42 PROCESSORS

     CHECK POINT   START OF SOLVER    

     CHECK POINT  END OF SOLVER       

       ELAPSED USER TIME (SEC)      =  0.25000    
       ELAPSED SYSTEM TIME (SEC)    =  5.00000E-02
       ELAPSED TOTAL CPU TIME (SEC) =  0.30000    
       ELAPSED WALLCLOCK TIME (SEC) =          0

               CONVERGENCE CHECKS FOR EQUILIBRIUM ITERATION     1


 AVERAGE FORCE                       8.17       TIME AVG. FORCE        5.20    
 ALL FORCE     RESIDUALS ARE ZERO
 LARGEST INCREMENT OF DISP.         6.528E-03   AT NODE       1046   DOF  3
 LARGEST CORRECTION TO DISP.       -2.129E-06   AT NODE       1046   DOF  2
          THE FORCE     EQUILIBRIUM RESPONSE WAS LINEAR IN THIS INCREMENT

 AVERAGE MOMENT                      0.00       TIME AVG. MOMENT       6.19    
                                                (FROM FORCE     FIELD)
 ALL MOMENT    RESIDUALS ARE ZERO
 LARGEST INCREMENT OF ROTATION      3.500E-04   AT NODE        342   DOF  4
 LARGEST CORRECTION TO ROTATION     4.337E-19   AT NODE        342   DOF  4
          THERE IS ZERO MOMENT    EVERYWHERE

 ITERATION SUMMARY FOR THE INCREMENT:   1 TOTAL ITERATIONS, OF WHICH
   0 ARE SEVERE DISCONTINUITY ITERATIONS AND  1 ARE EQUILIBRIUM ITERATIONS.

 TIME INCREMENT COMPLETED  5.000E-02,  FRACTION OF STEP COMPLETED  0.800    
 STEP TIME COMPLETED       0.800    ,  TOTAL TIME COMPLETED         1.80    


  INCREMENT    17 STARTS. ATTEMPT NUMBER  1, TIME INCREMENT  5.000E-02

  NUMBER OF EQUATIONS =      1170     NUMBER OF RHS =    1
  NUMBER OF FLOATING PT. OPERATIONS =  6.72E+06

  USING THE DIRECT SOLVER WITH  42 PROCESSORS

     CHECK POINT   START OF SOLVER    

     CHECK POINT  END OF SOLVER       

       ELAPSED USER TIME (SEC)      =  0.23000    
       ELAPSED SYSTEM TIME (SEC)    =  7.00000E-02
       ELAPSED TOTAL CPU TIME (SEC) =  0.30000    
       ELAPSED WALLCLOCK TIME (SEC) =          0

               CONVERGENCE CHECKS FOR EQUILIBRIUM ITERATION     1


 AVERAGE FORCE                       8.56       TIME AVG. FORCE        5.40    
 ALL FORCE     RESIDUALS ARE ZERO
 LARGEST INCREMENT OF DISP.         6.528E-03   AT NODE       1046   DOF  3
 LARGEST CORRECTION TO DISP.       -2.129E-06   AT NODE       1046   DOF  2
          THE FORCE     EQUILIBRIUM RESPONSE WAS LINEAR IN THIS INCREMENT

 AVERAGE MOMENT                      0.00       TIME AVG. MOMENT       6.43    
                                                (FROM FORCE     FIELD)
 ALL MOMENT    RESIDUALS ARE ZERO
 LARGEST INCREMENT OF ROTATION      3.500E-04   AT NODE        342   DOF  4
 LARGEST CORRECTION TO ROTATION    -8.674E-19   AT NODE        342   DOF  4
          THERE IS ZERO MOMENT    EVERYWHERE

 ITERATION SUMMARY FOR THE INCREMENT:   1 TOTAL ITERATIONS, OF WHICH
   0 ARE SEVERE DISCONTINUITY ITERATIONS AND  1 ARE EQUILIBRIUM ITERATIONS.

 TIME INCREMENT COMPLETED  5.000E-02,  FRACTION OF STEP COMPLETED  0.850    
 STEP TIME COMPLETED       0.850    ,  TOTAL TIME COMPLETED         1.85    


  INCREMENT    18 STARTS. ATTEMPT NUMBER  1, TIME INCREMENT  5.000E-02

  NUMBER OF EQUATIONS =      1170     NUMBER OF RHS =    1
  NUMBER OF FLOATING PT. OPERATIONS =  6.72E+06

  USING THE DIRECT SOLVER WITH  42 PROCESSORS

     CHECK POINT   START OF SOLVER    

     CHECK POINT  END OF SOLVER       

       ELAPSED USER TIME (SEC)      =  0.24000    
       ELAPSED SYSTEM TIME (SEC)    =  6.00000E-02
       ELAPSED TOTAL CPU TIME (SEC) =  0.30000    
       ELAPSED WALLCLOCK TIME (SEC) =          0

               CONVERGENCE CHECKS FOR EQUILIBRIUM ITERATION     1


 AVERAGE FORCE                       8.94       TIME AVG. FORCE        5.59    
 ALL FORCE     RESIDUALS ARE ZERO
 LARGEST INCREMENT OF DISP.         6.528E-03   AT NODE       1046   DOF  3
 LARGEST CORRECTION TO DISP.       -2.129E-06   AT NODE       1046   DOF  2
          THE FORCE     EQUILIBRIUM RESPONSE WAS LINEAR IN THIS INCREMENT

 AVERAGE MOMENT                      0.00       TIME AVG. MOMENT       6.68    
                                                (FROM FORCE     FIELD)
 ALL MOMENT    RESIDUALS ARE ZERO
 LARGEST INCREMENT OF ROTATION      3.500E-04   AT NODE        342   DOF  4
 LARGEST CORRECTION TO ROTATION     1.735E-18   AT NODE        342   DOF  4
          THERE IS ZERO MOMENT    EVERYWHERE

 ITERATION SUMMARY FOR THE INCREMENT:   1 TOTAL ITERATIONS, OF WHICH
   0 ARE SEVERE DISCONTINUITY ITERATIONS AND  1 ARE EQUILIBRIUM ITERATIONS.

 TIME INCREMENT COMPLETED  5.000E-02,  FRACTION OF STEP COMPLETED  0.900    
 STEP TIME COMPLETED       0.900    ,  TOTAL TIME COMPLETED         1.90    


  INCREMENT    19 STARTS. ATTEMPT NUMBER  1, TIME INCREMENT  5.000E-02

  NUMBER OF EQUATIONS =      1170     NUMBER OF RHS =    1
  NUMBER OF FLOATING PT. OPERATIONS =  6.72E+06

  USING THE DIRECT SOLVER WITH  42 PROCESSORS

     CHECK POINT   START OF SOLVER    

     CHECK POINT  END OF SOLVER       

       ELAPSED USER TIME (SEC)      =  0.43000    
       ELAPSED SYSTEM TIME (SEC)    =  4.00000E-02
       ELAPSED TOTAL CPU TIME (SEC) =  0.47000    
       ELAPSED WALLCLOCK TIME (SEC) =          0

               CONVERGENCE CHECKS FOR EQUILIBRIUM ITERATION     1


 AVERAGE FORCE                       9.30       TIME AVG. FORCE        5.79    
 ALL FORCE     RESIDUALS ARE ZERO
 LARGEST INCREMENT OF DISP.         6.528E-03   AT NODE       1046   DOF  3
 LARGEST CORRECTION TO DISP.       -2.129E-06   AT NODE       1046   DOF  2
          THE FORCE     EQUILIBRIUM RESPONSE WAS LINEAR IN THIS INCREMENT

 AVERAGE MOMENT                      0.00       TIME AVG. MOMENT       6.92    
                                                (FROM FORCE     FIELD)
 ALL MOMENT    RESIDUALS ARE ZERO
 LARGEST INCREMENT OF ROTATION      3.500E-04   AT NODE        342   DOF  4
 LARGEST CORRECTION TO ROTATION     8.945E-19   AT NODE        342   DOF  5
          THERE IS ZERO MOMENT    EVERYWHERE

 ITERATION SUMMARY FOR THE INCREMENT:   1 TOTAL ITERATIONS, OF WHICH
   0 ARE SEVERE DISCONTINUITY ITERATIONS AND  1 ARE EQUILIBRIUM ITERATIONS.

 TIME INCREMENT COMPLETED  5.000E-02,  FRACTION OF STEP COMPLETED  0.950    
 STEP TIME COMPLETED       0.950    ,  TOTAL TIME COMPLETED         1.95    


  INCREMENT    20 STARTS. ATTEMPT NUMBER  1, TIME INCREMENT  5.000E-02

  NUMBER OF EQUATIONS =      1170     NUMBER OF RHS =    1
  NUMBER OF FLOATING PT. OPERATIONS =  6.72E+06

  USING THE DIRECT SOLVER WITH  42 PROCESSORS

     CHECK POINT   START OF SOLVER    

     CHECK POINT  END OF SOLVER       

       ELAPSED USER TIME (SEC)      =  0.28000    
       ELAPSED SYSTEM TIME (SEC)    =  8.00000E-02
       ELAPSED TOTAL CPU TIME (SEC) =  0.36000    
       ELAPSED WALLCLOCK TIME (SEC) =          0

               CONVERGENCE CHECKS FOR EQUILIBRIUM ITERATION     1


 AVERAGE FORCE                       9.67       TIME AVG. FORCE        5.98    
 ALL FORCE     RESIDUALS ARE ZERO
 LARGEST INCREMENT OF DISP.         6.528E-03   AT NODE       1046   DOF  3
 LARGEST CORRECTION TO DISP.       -2.129E-06   AT NODE       1046   DOF  2
          THE FORCE     EQUILIBRIUM RESPONSE WAS LINEAR IN THIS INCREMENT

[...]
          THE FORCE     EQUILIBRIUM RESPONSE WAS LINEAR IN THIS INCREMENT

 AVERAGE MOMENT                      0.00       TIME AVG. MOMENT       103.    
                                                (FROM FORCE     FIELD)
 ALL MOMENT    RESIDUALS ARE ZERO
 LARGEST INCREMENT OF ROTATION      1.085E-02   AT NODE        342   DOF  4
 LARGEST CORRECTION TO ROTATION     1.388E-17   AT NODE        342   DOF  4
          THERE IS ZERO MOMENT    EVERYWHERE

 ITERATION SUMMARY FOR THE INCREMENT:   1 TOTAL ITERATIONS, OF WHICH
   0 ARE SEVERE DISCONTINUITY ITERATIONS AND  1 ARE EQUILIBRIUM ITERATIONS.

 TIME INCREMENT COMPLETED  5.000E-02,  FRACTION OF STEP COMPLETED  0.100    
 STEP TIME COMPLETED       0.100    ,  TOTAL TIME COMPLETED         36.1    


  INCREMENT     3 STARTS. ATTEMPT NUMBER  1, TIME INCREMENT  5.000E-02

  NUMBER OF EQUATIONS =      1170     NUMBER OF RHS =    1
  NUMBER OF FLOATING PT. OPERATIONS =  6.72E+06

  USING THE DIRECT SOLVER WITH  42 PROCESSORS

     CHECK POINT   START OF SOLVER    

     CHECK POINT  END OF SOLVER       

       ELAPSED USER TIME (SEC)      =  0.25000    
       ELAPSED SYSTEM TIME (SEC)    =  8.00000E-02
       ELAPSED TOTAL CPU TIME (SEC) =  0.33000    
       ELAPSED WALLCLOCK TIME (SEC) =          0

               CONVERGENCE CHECKS FOR EQUILIBRIUM ITERATION     1


 AVERAGE FORCE                       128.       TIME AVG. FORCE        104.    
 ALL FORCE     RESIDUALS ARE ZERO
 LARGEST INCREMENT OF DISP.         0.149       AT NODE       1067   DOF  3
 LARGEST CORRECTION TO DISP.       -1.598E-03   AT NODE       1067   DOF  2
          THE FORCE     EQUILIBRIUM RESPONSE WAS LINEAR IN THIS INCREMENT

 AVERAGE MOMENT                      0.00       TIME AVG. MOMENT       114.    
                                                (FROM FORCE     FIELD)
 ALL MOMENT    RESIDUALS ARE ZERO
 LARGEST INCREMENT OF ROTATION      1.085E-02   AT NODE        342   DOF  4
 LARGEST CORRECTION TO ROTATION    -1.214E-17   AT NODE        342   DOF  4
          THERE IS ZERO MOMENT    EVERYWHERE

 ITERATION SUMMARY FOR THE INCREMENT:   1 TOTAL ITERATIONS, OF WHICH
   0 ARE SEVERE DISCONTINUITY ITERATIONS AND  1 ARE EQUILIBRIUM ITERATIONS.

 TIME INCREMENT COMPLETED  5.000E-02,  FRACTION OF STEP COMPLETED  0.150    
 STEP TIME COMPLETED       0.150    ,  TOTAL TIME COMPLETED         36.2    


  INCREMENT     4 STARTS. ATTEMPT NUMBER  1, TIME INCREMENT  5.000E-02

 ***WARNING: EXCESSIVE DISTORTION AT A TOTAL OF 2 INTEGRATION POINTS IN SOLID 
             (CONTINUUM) ELEMENTS


  INCREMENT     4 STARTS. ATTEMPT NUMBER  2, TIME INCREMENT  1.250E-02
 

 ***NOTE: ELEMENTS ARE DISTORTING EXCESSIVELY. CONVERGENCE IS JUDGED UNLIKELY.

  NUMBER OF EQUATIONS =      1170     NUMBER OF RHS =    1
  NUMBER OF FLOATING PT. OPERATIONS =  6.72E+06

  USING THE DIRECT SOLVER WITH  42 PROCESSORS

     CHECK POINT   START OF SOLVER    

     CHECK POINT  END OF SOLVER       

       ELAPSED USER TIME (SEC)      =  0.22000    
       ELAPSED SYSTEM TIME (SEC)    =  0.12000    
       ELAPSED TOTAL CPU TIME (SEC) =  0.34000    
       ELAPSED WALLCLOCK TIME (SEC) =          0

               CONVERGENCE CHECKS FOR EQUILIBRIUM ITERATION     1


 AVERAGE FORCE                       141.       TIME AVG. FORCE        114.    
 ALL FORCE     RESIDUALS ARE ZERO
 LARGEST INCREMENT OF DISP.         3.730E-02   AT NODE       1067   DOF  3
 LARGEST CORRECTION TO DISP.       -2.498E-04   AT NODE       1067   DOF  2
          THE FORCE     EQUILIBRIUM RESPONSE WAS LINEAR IN THIS INCREMENT

 AVERAGE MOMENT                      0.00       TIME AVG. MOMENT       129.    
                                                (FROM FORCE     FIELD)
 ALL MOMENT    RESIDUALS ARE ZERO
 LARGEST INCREMENT OF ROTATION      2.713E-03   AT NODE        342   DOF  4
 LARGEST CORRECTION TO ROTATION     7.373E-18   AT NODE        342   DOF  4
          THERE IS ZERO MOMENT    EVERYWHERE
          TIME INCREMENT MAY NOW INCREASE TO    1.875E-02

 ITERATION SUMMARY FOR THE INCREMENT:   1 TOTAL ITERATIONS, OF WHICH
   0 ARE SEVERE DISCONTINUITY ITERATIONS AND  1 ARE EQUILIBRIUM ITERATIONS.

 TIME INCREMENT COMPLETED  1.250E-02,  FRACTION OF STEP COMPLETED  0.163    
 STEP TIME COMPLETED       0.163    ,  TOTAL TIME COMPLETED         36.2    
   ELEMENT 999 IS DISTORTING EXCESSIVELY.
   ELEMENT 999 IS DISTORTING EXCESSIVELY.


  INCREMENT     5 STARTS. ATTEMPT NUMBER  1, TIME INCREMENT  1.875E-02

  NUMBER OF EQUATIONS =      1170     NUMBER OF RHS =    1
  NUMBER OF FLOATING PT. OPERATIONS =  6.72E+06

  USING THE DIRECT SOLVER WITH  42 PROCESSORS

     CHECK POINT   START OF SOLVER    

     CHECK POINT  END OF SOLVER       

       ELAPSED USER TIME (SEC)      =  0.24000    
       ELAPSED SYSTEM TIME (SEC)    =  0.14000    
       ELAPSED TOTAL CPU TIME (SEC) =  0.38000    
       ELAPSED WALLCLOCK TIME (SEC) =          0

               CONVERGENCE CHECKS FOR EQUILIBRIUM ITERATION     1


 AVERAGE FORCE                       172.       TIME AVG. FORCE        125.    
 ALL FORCE     RESIDUALS ARE ZERO
 LARGEST INCREMENT OF DISP.         5.596E-02   AT NODE       1067   DOF  3
 LARGEST CORRECTION TO DISP.       -1.874E-04   AT NODE       1067   DOF  2
          THE FORCE     EQUILIBRIUM RESPONSE WAS LINEAR IN THIS INCREMENT

 AVERAGE MOMENT                      0.00       TIME AVG. MOMENT       141.    
                                                (FROM FORCE     FIELD)
 ALL MOMENT    RESIDUALS ARE ZERO
 LARGEST INCREMENT OF ROTATION      4.069E-03   AT NODE        342   DOF  4
 LARGEST CORRECTION TO ROTATION    -1.475E-17   AT NODE        342   DOF  4
          THERE IS ZERO MOMENT    EVERYWHERE
          TIME INCREMENT MAY NOW INCREASE TO    2.813E-02

 ITERATION SUMMARY FOR THE INCREMENT:   1 TOTAL ITERATIONS, OF WHICH
   0 ARE SEVERE DISCONTINUITY ITERATIONS AND  1 ARE EQUILIBRIUM ITERATIONS.

 TIME INCREMENT COMPLETED  1.875E-02,  FRACTION OF STEP COMPLETED  0.181    
 STEP TIME COMPLETED       0.181    ,  TOTAL TIME COMPLETED         36.2    


  INCREMENT     6 STARTS. ATTEMPT NUMBER  1, TIME INCREMENT  2.813E-02

 ***WARNING: EXCESSIVE DISTORTION AT A TOTAL OF 6 INTEGRATION POINTS IN SOLID 
             (CONTINUUM) ELEMENTS


  INCREMENT     6 STARTS. ATTEMPT NUMBER  2, TIME INCREMENT  7.031E-03
 

 ***NOTE: ELEMENTS ARE DISTORTING EXCESSIVELY. CONVERGENCE IS JUDGED UNLIKELY.

  NUMBER OF EQUATIONS =      1170     NUMBER OF RHS =    1
  NUMBER OF FLOATING PT. OPERATIONS =  6.72E+06

  USING THE DIRECT SOLVER WITH  42 PROCESSORS

     CHECK POINT   START OF SOLVER    

     CHECK POINT  END OF SOLVER       

       ELAPSED USER TIME (SEC)      =  0.28000    
       ELAPSED SYSTEM TIME (SEC)    =  7.00000E-02
       ELAPSED TOTAL CPU TIME (SEC) =  0.35000    
       ELAPSED WALLCLOCK TIME (SEC) =          0

               CONVERGENCE CHECKS FOR EQUILIBRIUM ITERATION     1


 AVERAGE FORCE                       194.       TIME AVG. FORCE        137.    
 ALL FORCE     RESIDUALS ARE ZERO
 LARGEST INCREMENT OF DISP.         2.099E-02   AT NODE       1067   DOF  3
 LARGEST CORRECTION TO DISP.       -5.798E-05   AT NODE       1067   DOF  2
          THE FORCE     EQUILIBRIUM RESPONSE WAS LINEAR IN THIS INCREMENT

 AVERAGE MOMENT                      0.00       TIME AVG. MOMENT       155.    
                                                (FROM FORCE     FIELD)
 ALL MOMENT    RESIDUALS ARE ZERO
 LARGEST INCREMENT OF ROTATION      1.526E-03   AT NODE        342   DOF  4
 LARGEST CORRECTION TO ROTATION    -1.518E-17   AT NODE        342   DOF  4
          THERE IS ZERO MOMENT    EVERYWHERE
          TIME INCREMENT MAY NOW INCREASE TO    1.055E-02

 ITERATION SUMMARY FOR THE INCREMENT:   1 TOTAL ITERATIONS, OF WHICH
   0 ARE SEVERE DISCONTINUITY ITERATIONS AND  1 ARE EQUILIBRIUM ITERATIONS.

 TIME INCREMENT COMPLETED  7.031E-03,  FRACTION OF STEP COMPLETED  0.188    
 STEP TIME COMPLETED       0.188    ,  TOTAL TIME COMPLETED         36.2    
   ELEMENT 999 IS DISTORTING EXCESSIVELY.
   ELEMENT 999 IS DISTORTING EXCESSIVELY.
   ELEMENT 999 IS DISTORTING EXCESSIVELY.
   ELEMENT 999 IS DISTORTING EXCESSIVELY.
   ELEMENT 1000 IS DISTORTING EXCESSIVELY.
   ELEMENT 1000 IS DISTORTING EXCESSIVELY.


  INCREMENT     7 STARTS. ATTEMPT NUMBER  1, TIME INCREMENT  1.055E-02

 ***WARNING: EXCESSIVE DISTORTION AT A TOTAL OF 2 INTEGRATION POINTS IN SOLID 
             (CONTINUUM) ELEMENTS


  INCREMENT     7 STARTS. ATTEMPT NUMBER  2, TIME INCREMENT  2.637E-03
 

 ***NOTE: ELEMENTS ARE DISTORTING EXCESSIVELY. CONVERGENCE IS JUDGED UNLIKELY.

  NUMBER OF EQUATIONS =      1170     NUMBER OF RHS =    1
  NUMBER OF FLOATING PT. OPERATIONS =  6.72E+06

  USING THE DIRECT SOLVER WITH  42 PROCESSORS

     CHECK POINT   START OF SOLVER    

     CHECK POINT  END OF SOLVER       

       ELAPSED USER TIME (SEC)      =  0.27000    
       ELAPSED SYSTEM TIME (SEC)    =  9.00000E-02
       ELAPSED TOTAL CPU TIME (SEC) =  0.36000    
       ELAPSED WALLCLOCK TIME (SEC) =          0

               CONVERGENCE CHECKS FOR EQUILIBRIUM ITERATION     1


 AVERAGE FORCE                       208.       TIME AVG. FORCE        147.    
 ALL FORCE     RESIDUALS ARE ZERO
 LARGEST INCREMENT OF DISP.         7.870E-03   AT NODE       1067   DOF  3
 LARGEST CORRECTION TO DISP.       -8.155E-06   AT NODE       1067   DOF  2
          THE FORCE     EQUILIBRIUM RESPONSE WAS LINEAR IN THIS INCREMENT

 AVERAGE MOMENT                      0.00       TIME AVG. MOMENT       169.    
                                                (FROM FORCE     FIELD)
 ALL MOMENT    RESIDUALS ARE ZERO
 LARGEST INCREMENT OF ROTATION      5.722E-04   AT NODE        342   DOF  4
 LARGEST CORRECTION TO ROTATION    -1.203E-17   AT NODE        342   DOF  4
          THERE IS ZERO MOMENT    EVERYWHERE
          TIME INCREMENT MAY NOW INCREASE TO    3.955E-03

 ITERATION SUMMARY FOR THE INCREMENT:   1 TOTAL ITERATIONS, OF WHICH
   0 ARE SEVERE DISCONTINUITY ITERATIONS AND  1 ARE EQUILIBRIUM ITERATIONS.

 TIME INCREMENT COMPLETED  2.637E-03,  FRACTION OF STEP COMPLETED  0.191    
 STEP TIME COMPLETED       0.191    ,  TOTAL TIME COMPLETED         36.2    
   ELEMENT 999 IS DISTORTING EXCESSIVELY.
   ELEMENT 999 IS DISTORTING EXCESSIVELY.


  INCREMENT     8 STARTS. ATTEMPT NUMBER  1, TIME INCREMENT  3.955E-03

  NUMBER OF EQUATIONS =      1170     NUMBER OF RHS =    1
  NUMBER OF FLOATING PT. OPERATIONS =  6.72E+06

  USING THE DIRECT SOLVER WITH  42 PROCESSORS

     CHECK POINT   START OF SOLVER    

     CHECK POINT  END OF SOLVER       

       ELAPSED USER TIME (SEC)      =  0.29000    
       ELAPSED SYSTEM TIME (SEC)    =  8.00000E-02
       ELAPSED TOTAL CPU TIME (SEC) =  0.37000    
       ELAPSED WALLCLOCK TIME (SEC) =          0

               CONVERGENCE CHECKS FOR EQUILIBRIUM ITERATION     1


 AVERAGE FORCE                       232.       TIME AVG. FORCE        158.    
 ALL FORCE     RESIDUALS ARE ZERO
 LARGEST INCREMENT OF DISP.         1.180E-02   AT NODE       1067   DOF  3
 LARGEST CORRECTION TO DISP.       -8.341E-06   AT NODE       1067   DOF  2
          THE FORCE     EQUILIBRIUM RESPONSE WAS LINEAR IN THIS INCREMENT

 AVERAGE MOMENT                      0.00       TIME AVG. MOMENT       182.    
                                                (FROM FORCE     FIELD)
 ALL MOMENT    RESIDUALS ARE ZERO
 LARGEST INCREMENT OF ROTATION      8.583E-04   AT NODE        342   DOF  4
 LARGEST CORRECTION TO ROTATION     4.152E-17   AT NODE        342   DOF  4
          THERE IS ZERO MOMENT    EVERYWHERE
          TIME INCREMENT MAY NOW INCREASE TO    5.933E-03

 ITERATION SUMMARY FOR THE INCREMENT:   1 TOTAL ITERATIONS, OF WHICH
   0 ARE SEVERE DISCONTINUITY ITERATIONS AND  1 ARE EQUILIBRIUM ITERATIONS.

 TIME INCREMENT COMPLETED  3.955E-03,  FRACTION OF STEP COMPLETED  0.195    
 STEP TIME COMPLETED       0.195    ,  TOTAL TIME COMPLETED         36.2    


  INCREMENT     9 STARTS. ATTEMPT NUMBER  1, TIME INCREMENT  5.933E-03

 ***WARNING: EXCESSIVE DISTORTION AT A TOTAL OF 2 INTEGRATION POINTS IN SOLID 
             (CONTINUUM) ELEMENTS


  INCREMENT     9 STARTS. ATTEMPT NUMBER  2, TIME INCREMENT  1.483E-03
 

 ***NOTE: ELEMENTS ARE DISTORTING EXCESSIVELY. CONVERGENCE IS JUDGED UNLIKELY.
   ELEMENT 999 IS DISTORTING EXCESSIVELY.

 ***WARNING: EXCESSIVE DISTORTION AT A TOTAL OF 1 INTEGRATION POINTS IN SOLID 
             (CONTINUUM) ELEMENTS
 

 ***NOTE: ELEMENTS ARE DISTORTING EXCESSIVELY. CONVERGENCE IS JUDGED UNLIKELY.


  INCREMENT     9 STARTS. ATTEMPT NUMBER  3, TIME INCREMENT  3.708E-04

  NUMBER OF EQUATIONS =      1170     NUMBER OF RHS =    1
  NUMBER OF FLOATING PT. OPERATIONS =  6.72E+06

  USING THE DIRECT SOLVER WITH  42 PROCESSORS

     CHECK POINT   START OF SOLVER    

     CHECK POINT  END OF SOLVER       

       ELAPSED USER TIME (SEC)      =  0.26000    
       ELAPSED SYSTEM TIME (SEC)    =  7.00000E-02
       ELAPSED TOTAL CPU TIME (SEC) =  0.33000    
       ELAPSED WALLCLOCK TIME (SEC) =          0

               CONVERGENCE CHECKS FOR EQUILIBRIUM ITERATION     1


 AVERAGE FORCE                       239.       TIME AVG. FORCE        167.    
 ALL FORCE     RESIDUALS ARE ZERO
 LARGEST INCREMENT OF DISP.         1.107E-03   AT NODE       1067   DOF  3
 LARGEST CORRECTION TO DISP.        1.107E-03   AT NODE       1067   DOF  3
          THE FORCE     EQUILIBRIUM RESPONSE WAS LINEAR IN THIS INCREMENT

 AVERAGE MOMENT                      0.00       TIME AVG. MOMENT       195.    
                                                (FROM FORCE     FIELD)
 ALL MOMENT    RESIDUALS ARE ZERO
 LARGEST INCREMENT OF ROTATION      8.046E-05   AT NODE        342   DOF  4
 LARGEST CORRECTION TO ROTATION     8.046E-05   AT NODE        342   DOF  4
          THERE IS ZERO MOMENT    EVERYWHERE
          TIME INCREMENT MAY NOW INCREASE TO    5.562E-04

 ITERATION SUMMARY FOR THE INCREMENT:   1 TOTAL ITERATIONS, OF WHICH
   0 ARE SEVERE DISCONTINUITY ITERATIONS AND  1 ARE EQUILIBRIUM ITERATIONS.

 TIME INCREMENT COMPLETED  3.708E-04,  FRACTION OF STEP COMPLETED  0.195    
 STEP TIME COMPLETED       0.195    ,  TOTAL TIME COMPLETED         36.2    
   ELEMENT 999 IS DISTORTING EXCESSIVELY.
   ELEMENT 999 IS DISTORTING EXCESSIVELY.


  INCREMENT    10 STARTS. ATTEMPT NUMBER  1, TIME INCREMENT  5.562E-04

  NUMBER OF EQUATIONS =      1170     NUMBER OF RHS =    1
  NUMBER OF FLOATING PT. OPERATIONS =  6.72E+06

  USING THE DIRECT SOLVER WITH  42 PROCESSORS

     CHECK POINT   START OF SOLVER    

     CHECK POINT  END OF SOLVER       

       ELAPSED USER TIME (SEC)      =  0.33000    
       ELAPSED SYSTEM TIME (SEC)    =  6.00000E-02
       ELAPSED TOTAL CPU TIME (SEC) =  0.39000    
       ELAPSED WALLCLOCK TIME (SEC) =          0

               CONVERGENCE CHECKS FOR EQUILIBRIUM ITERATION     1


 AVERAGE FORCE                       249.       TIME AVG. FORCE        175.    
 ALL FORCE     RESIDUALS ARE ZERO
 LARGEST INCREMENT OF DISP.         1.660E-03   AT NODE       1067   DOF  3
 LARGEST CORRECTION TO DISP.       -1.649E-07   AT NODE       1067   DOF  2
          THE FORCE     EQUILIBRIUM RESPONSE WAS LINEAR IN THIS INCREMENT

 AVERAGE MOMENT                      0.00       TIME AVG. MOMENT       206.    
                                                (FROM FORCE     FIELD)
 ALL MOMENT    RESIDUALS ARE ZERO
 LARGEST INCREMENT OF ROTATION      1.207E-04   AT NODE        342   DOF  4
 LARGEST CORRECTION TO ROTATION     5.552E-17   AT NODE        342   DOF  4
          THERE IS ZERO MOMENT    EVERYWHERE
          TIME INCREMENT MAY NOW INCREASE TO    8.343E-04

 ITERATION SUMMARY FOR THE INCREMENT:   1 TOTAL ITERATIONS, OF WHICH
   0 ARE SEVERE DISCONTINUITY ITERATIONS AND  1 ARE EQUILIBRIUM ITERATIONS.

 TIME INCREMENT COMPLETED  5.562E-04,  FRACTION OF STEP COMPLETED  0.196    
 STEP TIME COMPLETED       0.196    ,  TOTAL TIME COMPLETED         36.2    


  INCREMENT    11 STARTS. ATTEMPT NUMBER  1, TIME INCREMENT  8.343E-04

 ***WARNING: EXCESSIVE DISTORTION AT A TOTAL OF 1 INTEGRATION POINTS IN SOLID 
             (CONTINUUM) ELEMENTS


  INCREMENT    11 STARTS. ATTEMPT NUMBER  2, TIME INCREMENT  2.086E-04
 

 ***NOTE: ELEMENTS ARE DISTORTING EXCESSIVELY. CONVERGENCE IS JUDGED UNLIKELY.
   ELEMENT 999 IS DISTORTING EXCESSIVELY.

 ***WARNING: EXCESSIVE DISTORTION AT A TOTAL OF 1 INTEGRATION POINTS IN SOLID 
             (CONTINUUM) ELEMENTS
 

 ***NOTE: ELEMENTS ARE DISTORTING EXCESSIVELY. CONVERGENCE IS JUDGED UNLIKELY.


  INCREMENT    11 STARTS. ATTEMPT NUMBER  3, TIME INCREMENT  5.214E-05

  NUMBER OF EQUATIONS =      1170     NUMBER OF RHS =    1
  NUMBER OF FLOATING PT. OPERATIONS =  6.72E+06

  USING THE DIRECT SOLVER WITH  42 PROCESSORS

     CHECK POINT   START OF SOLVER    

     CHECK POINT  END OF SOLVER       

       ELAPSED USER TIME (SEC)      =  0.22000    
       ELAPSED SYSTEM TIME (SEC)    =  0.13000    
       ELAPSED TOTAL CPU TIME (SEC) =  0.35000    
       ELAPSED WALLCLOCK TIME (SEC) =          0

               CONVERGENCE CHECKS FOR EQUILIBRIUM ITERATION     1


 AVERAGE FORCE                       255.       TIME AVG. FORCE        182.    
 ALL FORCE     RESIDUALS ARE ZERO
 LARGEST INCREMENT OF DISP.         1.556E-04   AT NODE       1067   DOF  3
 LARGEST CORRECTION TO DISP.        1.556E-04   AT NODE       1067   DOF  3
          THE FORCE     EQUILIBRIUM RESPONSE WAS LINEAR IN THIS INCREMENT

 AVERAGE MOMENT                      0.00       TIME AVG. MOMENT       216.    
                                                (FROM FORCE     FIELD)
 ALL MOMENT    RESIDUALS ARE ZERO
 LARGEST INCREMENT OF ROTATION      1.131E-05   AT NODE        342   DOF  4
 LARGEST CORRECTION TO ROTATION     1.131E-05   AT NODE        342   DOF  4
          THERE IS ZERO MOMENT    EVERYWHERE
          TIME INCREMENT MAY NOW INCREASE TO    7.821E-05

 ITERATION SUMMARY FOR THE INCREMENT:   1 TOTAL ITERATIONS, OF WHICH
   0 ARE SEVERE DISCONTINUITY ITERATIONS AND  1 ARE EQUILIBRIUM ITERATIONS.

 TIME INCREMENT COMPLETED  5.214E-05,  FRACTION OF STEP COMPLETED  0.196    
 STEP TIME COMPLETED       0.196    ,  TOTAL TIME COMPLETED         36.2    
   ELEMENT 999 IS DISTORTING EXCESSIVELY.


  INCREMENT    12 STARTS. ATTEMPT NUMBER  1, TIME INCREMENT  7.821E-05

 ***WARNING: EXCESSIVE DISTORTION AT A TOTAL OF 1 INTEGRATION POINTS IN SOLID 
             (CONTINUUM) ELEMENTS


  INCREMENT    12 STARTS. ATTEMPT NUMBER  2, TIME INCREMENT  5.000E-05
 

 ***NOTE: ELEMENTS ARE DISTORTING EXCESSIVELY. CONVERGENCE IS JUDGED UNLIKELY.
   ELEMENT 999 IS DISTORTING EXCESSIVELY.
 

 ***ERROR: TIME INCREMENT REQUIRED IS LESS THAN THE MINIMUM SPECIFIED

 ***ERROR: THE ANALYSIS HAS BEEN TERMINATED DUE TO PREVIOUS ERRORS. ALL OUTPUT 
           REQUESTS HAVE BEEN WRITTEN FOR THE LAST CONVERGED INCREMENT.



     ANALYSIS SUMMARY:
     TOTAL OF        732  INCREMENTS
                       8  CUTBACKS IN AUTOMATIC INCREMENTATION
                     731  ITERATIONS INCLUDING CONTACT ITERATIONS IF PRESENT
                     731  PASSES THROUGH THE EQUATION SOLVER OF WHICH 
                     731  INVOLVE MATRIX DECOMPOSITION, INCLUDING
                       0  DECOMPOSITION(S) OF THE MASS MATRIX
                       1  REORDERING OF EQUATIONS TO MINIMIZE WAVEFRONT
                       0  ADDITIONAL RESIDUAL EVALUATIONS FOR LINE SEARCHES
                       0  ADDITIONAL OPERATOR EVALUATIONS FOR LINE SEARCHES
                     531  WARNING MESSAGES DURING USER INPUT PROCESSING
                       8  WARNING MESSAGES DURING ANALYSIS
                       0  ANALYSIS WARNINGS ARE NUMERICAL PROBLEM MESSAGES
                       0  ANALYSIS WARNINGS ARE NEGATIVE EIGENVALUE MESSAGES
                       3  ERROR MESSAGES



     JOB TIME SUMMARY
       USER TIME (SEC)      =   1115.5    
       SYSTEM TIME (SEC)    =   344.60    
       TOTAL CPU TIME (SEC) =   1460.1    
       WALLCLOCK TIME (SEC) =        122
