1

   Abaqus 2021                                  Date 22-Feb-2023   Time 18:58:54
   For use by UNIVERSITAET BERN under license from Dassault Systemes or its subsidiary.



                         The Abaqus Software is a product of:

                           Dassault Systemes SIMULIA Corp.
                           1301 Atwood Avenue, Suite 101W
                              Johnston, RI 02919, USA
 


                   The Abaqus Software is available only under license
                   from Dassault Systemes or its subsidiary and may be
                   used or reproduced only in accordance with the terms
                   of such license.
 
                          On machine artorg-cortex.campus.unibe.ch 
                          you are authorized to run
                          Abaqus/Standard until 31-Jan-2024

                          Your site id is: 200000000031934 


 
                    For assistance or any other information you may
                    obtain contact information for your local office
                    from the world wide web at:

                      http://www.3ds.com/products/simulia/locations/

 
                * * * * * * * * * * * * * * * * * * * * * * * * * * * * * * 
                *                                                         * 
                *                   *****************                     * 
                *                   *  N O T I C E  *                     * 
                *                   *****************                     * 
                *                                                         * 
                *                                                         * 
                *                       Abaqus 2021                       * 
                *                                                         * 
                *          BUILD ID: 2020_03_06-15.50.37 167380           * 
                *                                                         * 
                *                                                         * 
                *  Please make sure you are using                         * 
                *  release Abaqus 2021 manuals                            * 
                *  plus the notes accompanying this release.              * 
                *                                                         * 
                *                                                         * 
                *                                                         * 
                *                                                         * 
                *                                                         * 
                *   This program may not be used for commercial purposes  * 
                *           without payment of a commercial fee.          * 
                *                                                         * 
                * * * * * * * * * * * * * * * * * * * * * * * * * * * * * * 


 



     PROCESSING PART, INSTANCE, AND ASSEMBLY INFORMATION
   *******************************************************


     END PROCESSING PART, INSTANCE, AND ASSEMBLY INFORMATION
   ***********************************************************




     OPTIONS BEING PROCESSED
   ***************************


  *NODE
  *ELEMENT, TYPE=C3D8, ELSET=BONE
  *ELEMENT, TYPE=C3D8, ELSET=Elset335

 ***WARNING: ELEMENT LABEL 335 HAS BEEN USED MORE THAN ONCE. ONLY THE LAST 
             DEFINITION IS CONSIDERED.
  *ELEMENT, TYPE=C3D8, ELSET=Elset336

 ***WARNING: ELEMENT LABEL 336 HAS BEEN USED MORE THAN ONCE. ONLY THE LAST 
             DEFINITION IS CONSIDERED.
  *ELEMENT, TYPE=C3D8, ELSET=Elset337

 ***WARNING: ELEMENT LABEL 337 HAS BEEN USED MORE THAN ONCE. ONLY THE LAST 
             DEFINITION IS CONSIDERED.
  *ELEMENT, TYPE=C3D8, ELSET=Elset338

 ***WARNING: ELEMENT LABEL 338 HAS BEEN USED MORE THAN ONCE. ONLY THE LAST 
             DEFINITION IS CONSIDERED.
  *ELEMENT, TYPE=C3D8, ELSET=Elset339

 ***WARNING: ELEMENT LABEL 339 HAS BEEN USED MORE THAN ONCE. ONLY THE LAST 
             DEFINITION IS CONSIDERED.
  *ELEMENT, TYPE=C3D8, ELSET=Elset377

 ***WARNING: ELEMENT LABEL 377 HAS BEEN USED MORE THAN ONCE. ONLY THE LAST 
             DEFINITION IS CONSIDERED.
  *ELEMENT, TYPE=C3D8, ELSET=Elset378

 ***WARNING: ELEMENT LABEL 378 HAS BEEN USED MORE THAN ONCE. ONLY THE LAST 
             DEFINITION IS CONSIDERED.
  *ELEMENT, TYPE=C3D8, ELSET=Elset379

 ***WARNING: ELEMENT LABEL 379 HAS BEEN USED MORE THAN ONCE. ONLY THE LAST 
             DEFINITION IS CONSIDERED.
  *ELEMENT, TYPE=C3D8, ELSET=Elset380

 ***WARNING: ELEMENT LABEL 380 HAS BEEN USED MORE THAN ONCE. ONLY THE LAST 
             DEFINITION IS CONSIDERED.
  *ELEMENT, TYPE=C3D8, ELSET=Elset381

 ***WARNING: ELEMENT LABEL 381 HAS BEEN USED MORE THAN ONCE. ONLY THE LAST 
             DEFINITION IS CONSIDERED.
  *ELEMENT, TYPE=C3D8, ELSET=Elset382

 ***WARNING: ELEMENT LABEL 382 HAS BEEN USED MORE THAN ONCE. ONLY THE LAST 
             DEFINITION IS CONSIDERED.
  *ELEMENT, TYPE=C3D8, ELSET=Elset383

 ***WARNING: ELEMENT LABEL 383 HAS BEEN USED MORE THAN ONCE. ONLY THE LAST 
             DEFINITION IS CONSIDERED.
  *ELEMENT, TYPE=C3D8, ELSET=Elset384

 ***WARNING: ELEMENT LABEL 384 HAS BEEN USED MORE THAN ONCE. ONLY THE LAST 
             DEFINITION IS CONSIDERED.
  *ELEMENT, TYPE=C3D8, ELSET=Elset385

 ***WARNING: ELEMENT LABEL 385 HAS BEEN USED MORE THAN ONCE. ONLY THE LAST 
             DEFINITION IS CONSIDERED.
  *ELEMENT, TYPE=C3D8, ELSET=Elset386

 ***WARNING: ELEMENT LABEL 386 HAS BEEN USED MORE THAN ONCE. ONLY THE LAST 
             DEFINITION IS CONSIDERED.
  *ELEMENT, TYPE=C3D8, ELSET=Elset387

 ***WARNING: ELEMENT LABEL 387 HAS BEEN USED MORE THAN ONCE. ONLY THE LAST 
             DEFINITION IS CONSIDERED.
  *ELEMENT, TYPE=C3D8, ELSET=Elset388

 ***WARNING: ELEMENT LABEL 388 HAS BEEN USED MORE THAN ONCE. ONLY THE LAST 
             DEFINITION IS CONSIDERED.
  *ELEMENT, TYPE=C3D8, ELSET=Elset420

 ***WARNING: ELEMENT LABEL 420 HAS BEEN USED MORE THAN ONCE. ONLY THE LAST 
             DEFINITION IS CONSIDERED.
  *ELEMENT, TYPE=C3D8, ELSET=Elset421

 ***WARNING: ELEMENT LABEL 421 HAS BEEN USED MORE THAN ONCE. ONLY THE LAST 
             DEFINITION IS CONSIDERED.
  *ELEMENT, TYPE=C3D8, ELSET=Elset422

 ***WARNING: ELEMENT LABEL 422 HAS BEEN USED MORE THAN ONCE. ONLY THE LAST 
             DEFINITION IS CONSIDERED.
  *ELEMENT, TYPE=C3D8, ELSET=Elset423

 ***WARNING: ELEMENT LABEL 423 HAS BEEN USED MORE THAN ONCE. ONLY THE LAST 
             DEFINITION IS CONSIDERED.
  *ELEMENT, TYPE=C3D8, ELSET=Elset424

 ***WARNING: ELEMENT LABEL 424 HAS BEEN USED MORE THAN ONCE. ONLY THE LAST 
             DEFINITION IS CONSIDERED.
  *ELEMENT, TYPE=C3D8, ELSET=Elset425

 ***WARNING: ELEMENT LABEL 425 HAS BEEN USED MORE THAN ONCE. ONLY THE LAST 
             DEFINITION IS CONSIDERED.
  *ELEMENT, TYPE=C3D8, ELSET=Elset426

 ***WARNING: ELEMENT LABEL 426 HAS BEEN USED MORE THAN ONCE. ONLY THE LAST 
             DEFINITION IS CONSIDERED.
  *ELEMENT, TYPE=C3D8, ELSET=Elset427

 ***WARNING: ELEMENT LABEL 427 HAS BEEN USED MORE THAN ONCE. ONLY THE LAST 
             DEFINITION IS CONSIDERED.
  *ELEMENT, TYPE=C3D8, ELSET=Elset428

 ***WARNING: ELEMENT LABEL 428 HAS BEEN USED MORE THAN ONCE. ONLY THE LAST 
             DEFINITION IS CONSIDERED.
  *ELEMENT, TYPE=C3D8, ELSET=Elset429

 ***WARNING: ELEMENT LABEL 429 HAS BEEN USED MORE THAN ONCE. ONLY THE LAST 
             DEFINITION IS CONSIDERED.
  *ELEMENT, TYPE=C3D8, ELSET=Elset430

 ***WARNING: ELEMENT LABEL 430 HAS BEEN USED MORE THAN ONCE. ONLY THE LAST 
             DEFINITION IS CONSIDERED.
  *ELEMENT, TYPE=C3D8, ELSET=Elset431

 ***WARNING: ELEMENT LABEL 431 HAS BEEN USED MORE THAN ONCE. ONLY THE LAST 
             DEFINITION IS CONSIDERED.
  *ELEMENT, TYPE=C3D8, ELSET=Elset432

 ***WARNING: ELEMENT LABEL 432 HAS BEEN USED MORE THAN ONCE. ONLY THE LAST 
             DEFINITION IS CONSIDERED.
  *ELEMENT, TYPE=C3D8, ELSET=Elset433

 ***WARNING: ELEMENT LABEL 433 HAS BEEN USED MORE THAN ONCE. ONLY THE LAST 
             DEFINITION IS CONSIDERED.
  *ELEMENT, TYPE=C3D8, ELSET=Elset434

 ***WARNING: ELEMENT LABEL 434 HAS BEEN USED MORE THAN ONCE. ONLY THE LAST 
             DEFINITION IS CONSIDERED.
  *ELEMENT, TYPE=C3D8, ELSET=Elset435

 ***WARNING: ELEMENT LABEL 435 HAS BEEN USED MORE THAN ONCE. ONLY THE LAST 
             DEFINITION IS CONSIDERED.
  *ELEMENT, TYPE=C3D8, ELSET=Elset463

 ***WARNING: ELEMENT LABEL 463 HAS BEEN USED MORE THAN ONCE. ONLY THE LAST 
             DEFINITION IS CONSIDERED.
  *ELEMENT, TYPE=C3D8, ELSET=Elset464

 ***WARNING: ELEMENT LABEL 464 HAS BEEN USED MORE THAN ONCE. ONLY THE LAST 
             DEFINITION IS CONSIDERED.
  *ELEMENT, TYPE=C3D8, ELSET=Elset465

 ***WARNING: ELEMENT LABEL 465 HAS BEEN USED MORE THAN ONCE. ONLY THE LAST 
             DEFINITION IS CONSIDERED.
  *ELEMENT, TYPE=C3D8, ELSET=Elset466

 ***WARNING: ELEMENT LABEL 466 HAS BEEN USED MORE THAN ONCE. ONLY THE LAST 
             DEFINITION IS CONSIDERED.
  *ELEMENT, TYPE=C3D8, ELSET=Elset467

 ***WARNING: ELEMENT LABEL 467 HAS BEEN USED MORE THAN ONCE. ONLY THE LAST 
             DEFINITION IS CONSIDERED.
  *ELEMENT, TYPE=C3D8, ELSET=Elset468

 ***WARNING: ELEMENT LABEL 468 HAS BEEN USED MORE THAN ONCE. ONLY THE LAST 
             DEFINITION IS CONSIDERED.
  *ELEMENT, TYPE=C3D8, ELSET=Elset469

 ***WARNING: ELEMENT LABEL 469 HAS BEEN USED MORE THAN ONCE. ONLY THE LAST 
             DEFINITION IS CONSIDERED.
  *ELEMENT, TYPE=C3D8, ELSET=Elset470

 ***WARNING: ELEMENT LABEL 470 HAS BEEN USED MORE THAN ONCE. ONLY THE LAST 
             DEFINITION IS CONSIDERED.
  *ELEMENT, TYPE=C3D8, ELSET=Elset471

 ***WARNING: ELEMENT LABEL 471 HAS BEEN USED MORE THAN ONCE. ONLY THE LAST 
             DEFINITION IS CONSIDERED.
  *ELEMENT, TYPE=C3D8, ELSET=Elset472

 ***WARNING: ELEMENT LABEL 472 HAS BEEN USED MORE THAN ONCE. ONLY THE LAST 
             DEFINITION IS CONSIDERED.
  *ELEMENT, TYPE=C3D8, ELSET=Elset473

 ***WARNING: ELEMENT LABEL 473 HAS BEEN USED MORE THAN ONCE. ONLY THE LAST 
             DEFINITION IS CONSIDERED.
  *ELEMENT, TYPE=C3D8, ELSET=Elset474

 ***WARNING: ELEMENT LABEL 474 HAS BEEN USED MORE THAN ONCE. ONLY THE LAST 
             DEFINITION IS CONSIDERED.
  *ELEMENT, TYPE=C3D8, ELSET=Elset475

 ***WARNING: ELEMENT LABEL 475 HAS BEEN USED MORE THAN ONCE. ONLY THE LAST 
             DEFINITION IS CONSIDERED.
  *ELEMENT, TYPE=C3D8, ELSET=Elset476

 ***WARNING: ELEMENT LABEL 476 HAS BEEN USED MORE THAN ONCE. ONLY THE LAST 
             DEFINITION IS CONSIDERED.
  *ELEMENT, TYPE=C3D8, ELSET=Elset477

 ***WARNING: ELEMENT LABEL 477 HAS BEEN USED MORE THAN ONCE. ONLY THE LAST 
             DEFINITION IS CONSIDERED.
  *ELEMENT, TYPE=C3D8, ELSET=Elset478

 ***WARNING: ELEMENT LABEL 478 HAS BEEN USED MORE THAN ONCE. ONLY THE LAST 
             DEFINITION IS CONSIDERED.
  *ELEMENT, TYPE=C3D8, ELSET=Elset479

 ***WARNING: ELEMENT LABEL 479 HAS BEEN USED MORE THAN ONCE. ONLY THE LAST 
             DEFINITION IS CONSIDERED.
  *ELEMENT, TYPE=C3D8, ELSET=Elset480

 ***WARNING: ELEMENT LABEL 480 HAS BEEN USED MORE THAN ONCE. ONLY THE LAST 
             DEFINITION IS CONSIDERED.
  *ELEMENT, TYPE=C3D8, ELSET=Elset481

 ***WARNING: ELEMENT LABEL 481 HAS BEEN USED MORE THAN ONCE. ONLY THE LAST 
             DEFINITION IS CONSIDERED.
  *ELEMENT, TYPE=C3D8, ELSET=Elset506

 ***WARNING: ELEMENT LABEL 506 HAS BEEN USED MORE THAN ONCE. ONLY THE LAST 
             DEFINITION IS CONSIDERED.
  *ELEMENT, TYPE=C3D8, ELSET=Elset507

 ***WARNING: ELEMENT LABEL 507 HAS BEEN USED MORE THAN ONCE. ONLY THE LAST 
             DEFINITION IS CONSIDERED.
  *ELEMENT, TYPE=C3D8, ELSET=Elset508

 ***WARNING: ELEMENT LABEL 508 HAS BEEN USED MORE THAN ONCE. ONLY THE LAST 
             DEFINITION IS CONSIDERED.
  *ELEMENT, TYPE=C3D8, ELSET=Elset509

 ***WARNING: ELEMENT LABEL 509 HAS BEEN USED MORE THAN ONCE. ONLY THE LAST 
             DEFINITION IS CONSIDERED.
  *ELEMENT, TYPE=C3D8, ELSET=Elset510

 ***WARNING: ELEMENT LABEL 510 HAS BEEN USED MORE THAN ONCE. ONLY THE LAST 
             DEFINITION IS CONSIDERED.
  *ELEMENT, TYPE=C3D8, ELSET=Elset511

 ***WARNING: ELEMENT LABEL 511 HAS BEEN USED MORE THAN ONCE. ONLY THE LAST 
             DEFINITION IS CONSIDERED.
  *ELEMENT, TYPE=C3D8, ELSET=Elset512

 ***WARNING: ELEMENT LABEL 512 HAS BEEN USED MORE THAN ONCE. ONLY THE LAST 
             DEFINITION IS CONSIDERED.
  *ELEMENT, TYPE=C3D8, ELSET=Elset513

 ***WARNING: ELEMENT LABEL 513 HAS BEEN USED MORE THAN ONCE. ONLY THE LAST 
             DEFINITION IS CONSIDERED.
  *ELEMENT, TYPE=C3D8, ELSET=Elset514

 ***WARNING: ELEMENT LABEL 514 HAS BEEN USED MORE THAN ONCE. ONLY THE LAST 
             DEFINITION IS CONSIDERED.
  *ELEMENT, TYPE=C3D8, ELSET=Elset515

 ***WARNING: ELEMENT LABEL 515 HAS BEEN USED MORE THAN ONCE. ONLY THE LAST 
             DEFINITION IS CONSIDERED.
  *ELEMENT, TYPE=C3D8, ELSET=Elset516

 ***WARNING: ELEMENT LABEL 516 HAS BEEN USED MORE THAN ONCE. ONLY THE LAST 
             DEFINITION IS CONSIDERED.
  *ELEMENT, TYPE=C3D8, ELSET=Elset517

 ***WARNING: ELEMENT LABEL 517 HAS BEEN USED MORE THAN ONCE. ONLY THE LAST 
             DEFINITION IS CONSIDERED.
  *ELEMENT, TYPE=C3D8, ELSET=Elset518

 ***WARNING: ELEMENT LABEL 518 HAS BEEN USED MORE THAN ONCE. ONLY THE LAST 
             DEFINITION IS CONSIDERED.
  *ELEMENT, TYPE=C3D8, ELSET=Elset519

 ***WARNING: ELEMENT LABEL 519 HAS BEEN USED MORE THAN ONCE. ONLY THE LAST 
             DEFINITION IS CONSIDERED.
  *ELEMENT, TYPE=C3D8, ELSET=Elset520

 ***WARNING: ELEMENT LABEL 520 HAS BEEN USED MORE THAN ONCE. ONLY THE LAST 
             DEFINITION IS CONSIDERED.
  *ELEMENT, TYPE=C3D8, ELSET=Elset521

 ***WARNING: ELEMENT LABEL 521 HAS BEEN USED MORE THAN ONCE. ONLY THE LAST 
             DEFINITION IS CONSIDERED.
  *ELEMENT, TYPE=C3D8, ELSET=Elset522

 ***WARNING: ELEMENT LABEL 522 HAS BEEN USED MORE THAN ONCE. ONLY THE LAST 
             DEFINITION IS CONSIDERED.
  *ELEMENT, TYPE=C3D8, ELSET=Elset523

 ***WARNING: ELEMENT LABEL 523 HAS BEEN USED MORE THAN ONCE. ONLY THE LAST 
             DEFINITION IS CONSIDERED.
  *ELEMENT, TYPE=C3D8, ELSET=Elset524

 ***WARNING: ELEMENT LABEL 524 HAS BEEN USED MORE THAN ONCE. ONLY THE LAST 
             DEFINITION IS CONSIDERED.
  *ELEMENT, TYPE=C3D8, ELSET=Elset525

 ***WARNING: ELEMENT LABEL 525 HAS BEEN USED MORE THAN ONCE. ONLY THE LAST 
             DEFINITION IS CONSIDERED.
  *ELEMENT, TYPE=C3D8, ELSET=Elset526

 ***WARNING: ELEMENT LABEL 526 HAS BEEN USED MORE THAN ONCE. ONLY THE LAST 
             DEFINITION IS CONSIDERED.
  *ELEMENT, TYPE=C3D8, ELSET=Elset527

 ***WARNING: ELEMENT LABEL 527 HAS BEEN USED MORE THAN ONCE. ONLY THE LAST 
             DEFINITION IS CONSIDERED.
  *ELEMENT, TYPE=C3D8, ELSET=Elset550

 ***WARNING: ELEMENT LABEL 550 HAS BEEN USED MORE THAN ONCE. ONLY THE LAST 
             DEFINITION IS CONSIDERED.
  *ELEMENT, TYPE=C3D8, ELSET=Elset551

 ***WARNING: ELEMENT LABEL 551 HAS BEEN USED MORE THAN ONCE. ONLY THE LAST 
             DEFINITION IS CONSIDERED.
  *ELEMENT, TYPE=C3D8, ELSET=Elset552

 ***WARNING: ELEMENT LABEL 552 HAS BEEN USED MORE THAN ONCE. ONLY THE LAST 
             DEFINITION IS CONSIDERED.
  *ELEMENT, TYPE=C3D8, ELSET=Elset553

 ***WARNING: ELEMENT LABEL 553 HAS BEEN USED MORE THAN ONCE. ONLY THE LAST 
             DEFINITION IS CONSIDERED.
  *ELEMENT, TYPE=C3D8, ELSET=Elset554

 ***WARNING: ELEMENT LABEL 554 HAS BEEN USED MORE THAN ONCE. ONLY THE LAST 
             DEFINITION IS CONSIDERED.
  *ELEMENT, TYPE=C3D8, ELSET=Elset555

 ***WARNING: ELEMENT LABEL 555 HAS BEEN USED MORE THAN ONCE. ONLY THE LAST 
             DEFINITION IS CONSIDERED.
  *ELEMENT, TYPE=C3D8, ELSET=Elset556

 ***WARNING: ELEMENT LABEL 556 HAS BEEN USED MORE THAN ONCE. ONLY THE LAST 
             DEFINITION IS CONSIDERED.
  *ELEMENT, TYPE=C3D8, ELSET=Elset557

 ***WARNING: ELEMENT LABEL 557 HAS BEEN USED MORE THAN ONCE. ONLY THE LAST 
             DEFINITION IS CONSIDERED.
  *ELEMENT, TYPE=C3D8, ELSET=Elset558

 ***WARNING: ELEMENT LABEL 558 HAS BEEN USED MORE THAN ONCE. ONLY THE LAST 
             DEFINITION IS CONSIDERED.
  *ELEMENT, TYPE=C3D8, ELSET=Elset559

 ***WARNING: ELEMENT LABEL 559 HAS BEEN USED MORE THAN ONCE. ONLY THE LAST 
             DEFINITION IS CONSIDERED.
  *ELEMENT, TYPE=C3D8, ELSET=Elset560

 ***WARNING: ELEMENT LABEL 560 HAS BEEN USED MORE THAN ONCE. ONLY THE LAST 
             DEFINITION IS CONSIDERED.
  *ELEMENT, TYPE=C3D8, ELSET=Elset561

 ***WARNING: ELEMENT LABEL 561 HAS BEEN USED MORE THAN ONCE. ONLY THE LAST 
             DEFINITION IS CONSIDERED.
  *ELEMENT, TYPE=C3D8, ELSET=Elset562

 ***WARNING: ELEMENT LABEL 562 HAS BEEN USED MORE THAN ONCE. ONLY THE LAST 
             DEFINITION IS CONSIDERED.
  *ELEMENT, TYPE=C3D8, ELSET=Elset563

 ***WARNING: ELEMENT LABEL 563 HAS BEEN USED MORE THAN ONCE. ONLY THE LAST 
             DEFINITION IS CONSIDERED.
  *ELEMENT, TYPE=C3D8, ELSET=Elset564

 ***WARNING: ELEMENT LABEL 564 HAS BEEN USED MORE THAN ONCE. ONLY THE LAST 
             DEFINITION IS CONSIDERED.
  *ELEMENT, TYPE=C3D8, ELSET=Elset565

 ***WARNING: ELEMENT LABEL 565 HAS BEEN USED MORE THAN ONCE. ONLY THE LAST 
             DEFINITION IS CONSIDERED.
  *ELEMENT, TYPE=C3D8, ELSET=Elset566

 ***WARNING: ELEMENT LABEL 566 HAS BEEN USED MORE THAN ONCE. ONLY THE LAST 
             DEFINITION IS CONSIDERED.
  *ELEMENT, TYPE=C3D8, ELSET=Elset567

 ***WARNING: ELEMENT LABEL 567 HAS BEEN USED MORE THAN ONCE. ONLY THE LAST 
             DEFINITION IS CONSIDERED.
  *ELEMENT, TYPE=C3D8, ELSET=Elset568

 ***WARNING: ELEMENT LABEL 568 HAS BEEN USED MORE THAN ONCE. ONLY THE LAST 
             DEFINITION IS CONSIDERED.
  *ELEMENT, TYPE=C3D8, ELSET=Elset569

 ***WARNING: ELEMENT LABEL 569 HAS BEEN USED MORE THAN ONCE. ONLY THE LAST 
             DEFINITION IS CONSIDERED.
  *ELEMENT, TYPE=C3D8, ELSET=Elset570

 ***WARNING: ELEMENT LABEL 570 HAS BEEN USED MORE THAN ONCE. ONLY THE LAST 
             DEFINITION IS CONSIDERED.
  *ELEMENT, TYPE=C3D8, ELSET=Elset571

 ***WARNING: ELEMENT LABEL 571 HAS BEEN USED MORE THAN ONCE. ONLY THE LAST 
             DEFINITION IS CONSIDERED.
  *ELEMENT, TYPE=C3D8, ELSET=Elset572

 ***WARNING: ELEMENT LABEL 572 HAS BEEN USED MORE THAN ONCE. ONLY THE LAST 
             DEFINITION IS CONSIDERED.
  *ELEMENT, TYPE=C3D8, ELSET=Elset595

 ***WARNING: ELEMENT LABEL 595 HAS BEEN USED MORE THAN ONCE. ONLY THE LAST 
             DEFINITION IS CONSIDERED.
  *ELEMENT, TYPE=C3D8, ELSET=Elset596

 ***WARNING: ELEMENT LABEL 596 HAS BEEN USED MORE THAN ONCE. ONLY THE LAST 
             DEFINITION IS CONSIDERED.
  *ELEMENT, TYPE=C3D8, ELSET=Elset597

 ***WARNING: ELEMENT LABEL 597 HAS BEEN USED MORE THAN ONCE. ONLY THE LAST 
             DEFINITION IS CONSIDERED.
  *ELEMENT, TYPE=C3D8, ELSET=Elset598

 ***WARNING: ELEMENT LABEL 598 HAS BEEN USED MORE THAN ONCE. ONLY THE LAST 
             DEFINITION IS CONSIDERED.
  *ELEMENT, TYPE=C3D8, ELSET=Elset599

 ***WARNING: ELEMENT LABEL 599 HAS BEEN USED MORE THAN ONCE. ONLY THE LAST 
             DEFINITION IS CONSIDERED.
  *ELEMENT, TYPE=C3D8, ELSET=Elset600

 ***WARNING: ELEMENT LABEL 600 HAS BEEN USED MORE THAN ONCE. ONLY THE LAST 
             DEFINITION IS CONSIDERED.
  *ELEMENT, TYPE=C3D8, ELSET=Elset601

 ***WARNING: ELEMENT LABEL 601 HAS BEEN USED MORE THAN ONCE. ONLY THE LAST 
             DEFINITION IS CONSIDERED.
  *ELEMENT, TYPE=C3D8, ELSET=Elset602

 ***WARNING: ELEMENT LABEL 602 HAS BEEN USED MORE THAN ONCE. ONLY THE LAST 
             DEFINITION IS CONSIDERED.
  *ELEMENT, TYPE=C3D8, ELSET=Elset603

 ***WARNING: ELEMENT LABEL 603 HAS BEEN USED MORE THAN ONCE. ONLY THE LAST 
             DEFINITION IS CONSIDERED.
  *ELEMENT, TYPE=C3D8, ELSET=Elset604

 ***WARNING: ELEMENT LABEL 604 HAS BEEN USED MORE THAN ONCE. ONLY THE LAST 
             DEFINITION IS CONSIDERED.
  *ELEMENT, TYPE=C3D8, ELSET=Elset605

 ***WARNING: ELEMENT LABEL 605 HAS BEEN USED MORE THAN ONCE. ONLY THE LAST 
             DEFINITION IS CONSIDERED.
  *ELEMENT, TYPE=C3D8, ELSET=Elset606

 ***WARNING: ELEMENT LABEL 606 HAS BEEN USED MORE THAN ONCE. ONLY THE LAST 
             DEFINITION IS CONSIDERED.
  *ELEMENT, TYPE=C3D8, ELSET=Elset607

 ***WARNING: ELEMENT LABEL 607 HAS BEEN USED MORE THAN ONCE. ONLY THE LAST 
             DEFINITION IS CONSIDERED.
  *ELEMENT, TYPE=C3D8, ELSET=Elset608

 ***WARNING: ELEMENT LABEL 608 HAS BEEN USED MORE THAN ONCE. ONLY THE LAST 
             DEFINITION IS CONSIDERED.
  *ELEMENT, TYPE=C3D8, ELSET=Elset609

 ***WARNING: ELEMENT LABEL 609 HAS BEEN USED MORE THAN ONCE. ONLY THE LAST 
             DEFINITION IS CONSIDERED.
  *ELEMENT, TYPE=C3D8, ELSET=Elset610

 ***WARNING: ELEMENT LABEL 610 HAS BEEN USED MORE THAN ONCE. ONLY THE LAST 
             DEFINITION IS CONSIDERED.
  *ELEMENT, TYPE=C3D8, ELSET=Elset611

 ***WARNING: ELEMENT LABEL 611 HAS BEEN USED MORE THAN ONCE. ONLY THE LAST 
             DEFINITION IS CONSIDERED.
  *ELEMENT, TYPE=C3D8, ELSET=Elset612

 ***WARNING: ELEMENT LABEL 612 HAS BEEN USED MORE THAN ONCE. ONLY THE LAST 
             DEFINITION IS CONSIDERED.
  *ELEMENT, TYPE=C3D8, ELSET=Elset613

 ***WARNING: ELEMENT LABEL 613 HAS BEEN USED MORE THAN ONCE. ONLY THE LAST 
             DEFINITION IS CONSIDERED.
  *ELEMENT, TYPE=C3D8, ELSET=Elset614

 ***WARNING: ELEMENT LABEL 614 HAS BEEN USED MORE THAN ONCE. ONLY THE LAST 
             DEFINITION IS CONSIDERED.
  *ELEMENT, TYPE=C3D8, ELSET=Elset615

 ***WARNING: ELEMENT LABEL 615 HAS BEEN USED MORE THAN ONCE. ONLY THE LAST 
             DEFINITION IS CONSIDERED.
  *ELEMENT, TYPE=C3D8, ELSET=Elset616

 ***WARNING: ELEMENT LABEL 616 HAS BEEN USED MORE THAN ONCE. ONLY THE LAST 
             DEFINITION IS CONSIDERED.
  *ELEMENT, TYPE=C3D8, ELSET=Elset617

 ***WARNING: ELEMENT LABEL 617 HAS BEEN USED MORE THAN ONCE. ONLY THE LAST 
             DEFINITION IS CONSIDERED.
  *ELEMENT, TYPE=C3D8, ELSET=Elset618

 ***WARNING: ELEMENT LABEL 618 HAS BEEN USED MORE THAN ONCE. ONLY THE LAST 
             DEFINITION IS CONSIDERED.
  *ELEMENT, TYPE=C3D8, ELSET=Elset637

 ***WARNING: ELEMENT LABEL 637 HAS BEEN USED MORE THAN ONCE. ONLY THE LAST 
             DEFINITION IS CONSIDERED.
  *ELEMENT, TYPE=C3D8, ELSET=Elset638

 ***WARNING: ELEMENT LABEL 638 HAS BEEN USED MORE THAN ONCE. ONLY THE LAST 
             DEFINITION IS CONSIDERED.
  *ELEMENT, TYPE=C3D8, ELSET=Elset639

 ***WARNING: ELEMENT LABEL 639 HAS BEEN USED MORE THAN ONCE. ONLY THE LAST 
             DEFINITION IS CONSIDERED.
  *ELEMENT, TYPE=C3D8, ELSET=Elset640

 ***WARNING: ELEMENT LABEL 640 HAS BEEN USED MORE THAN ONCE. ONLY THE LAST 
             DEFINITION IS CONSIDERED.
  *ELEMENT, TYPE=C3D8, ELSET=Elset641

 ***WARNING: ELEMENT LABEL 641 HAS BEEN USED MORE THAN ONCE. ONLY THE LAST 
             DEFINITION IS CONSIDERED.
  *ELEMENT, TYPE=C3D8, ELSET=Elset642

 ***WARNING: ELEMENT LABEL 642 HAS BEEN USED MORE THAN ONCE. ONLY THE LAST 
             DEFINITION IS CONSIDERED.
  *ELEMENT, TYPE=C3D8, ELSET=Elset643

 ***WARNING: ELEMENT LABEL 643 HAS BEEN USED MORE THAN ONCE. ONLY THE LAST 
             DEFINITION IS CONSIDERED.
  *ELEMENT, TYPE=C3D8, ELSET=Elset644

 ***WARNING: ELEMENT LABEL 644 HAS BEEN USED MORE THAN ONCE. ONLY THE LAST 
             DEFINITION IS CONSIDERED.
  *ELEMENT, TYPE=C3D8, ELSET=Elset645

 ***WARNING: ELEMENT LABEL 645 HAS BEEN USED MORE THAN ONCE. ONLY THE LAST 
             DEFINITION IS CONSIDERED.
  *ELEMENT, TYPE=C3D8, ELSET=Elset646

 ***WARNING: ELEMENT LABEL 646 HAS BEEN USED MORE THAN ONCE. ONLY THE LAST 
             DEFINITION IS CONSIDERED.
  *ELEMENT, TYPE=C3D8, ELSET=Elset647

 ***WARNING: ELEMENT LABEL 647 HAS BEEN USED MORE THAN ONCE. ONLY THE LAST 
             DEFINITION IS CONSIDERED.
  *ELEMENT, TYPE=C3D8, ELSET=Elset648

 ***WARNING: ELEMENT LABEL 648 HAS BEEN USED MORE THAN ONCE. ONLY THE LAST 
             DEFINITION IS CONSIDERED.
  *ELEMENT, TYPE=C3D8, ELSET=Elset649

 ***WARNING: ELEMENT LABEL 649 HAS BEEN USED MORE THAN ONCE. ONLY THE LAST 
             DEFINITION IS CONSIDERED.
  *ELEMENT, TYPE=C3D8, ELSET=Elset650

 ***WARNING: ELEMENT LABEL 650 HAS BEEN USED MORE THAN ONCE. ONLY THE LAST 
             DEFINITION IS CONSIDERED.
  *ELEMENT, TYPE=C3D8, ELSET=Elset651

 ***WARNING: ELEMENT LABEL 651 HAS BEEN USED MORE THAN ONCE. ONLY THE LAST 
             DEFINITION IS CONSIDERED.
  *ELEMENT, TYPE=C3D8, ELSET=Elset652

 ***WARNING: ELEMENT LABEL 652 HAS BEEN USED MORE THAN ONCE. ONLY THE LAST 
             DEFINITION IS CONSIDERED.
  *ELEMENT, TYPE=C3D8, ELSET=Elset653

 ***WARNING: ELEMENT LABEL 653 HAS BEEN USED MORE THAN ONCE. ONLY THE LAST 
             DEFINITION IS CONSIDERED.
  *ELEMENT, TYPE=C3D8, ELSET=Elset654

 ***WARNING: ELEMENT LABEL 654 HAS BEEN USED MORE THAN ONCE. ONLY THE LAST 
             DEFINITION IS CONSIDERED.
  *ELEMENT, TYPE=C3D8, ELSET=Elset655

 ***WARNING: ELEMENT LABEL 655 HAS BEEN USED MORE THAN ONCE. ONLY THE LAST 
             DEFINITION IS CONSIDERED.
  *ELEMENT, TYPE=C3D8, ELSET=Elset656

 ***WARNING: ELEMENT LABEL 656 HAS BEEN USED MORE THAN ONCE. ONLY THE LAST 
             DEFINITION IS CONSIDERED.
  *ELEMENT, TYPE=C3D8, ELSET=Elset657

 ***WARNING: ELEMENT LABEL 657 HAS BEEN USED MORE THAN ONCE. ONLY THE LAST 
             DEFINITION IS CONSIDERED.
  *ELEMENT, TYPE=C3D8, ELSET=Elset658

 ***WARNING: ELEMENT LABEL 658 HAS BEEN USED MORE THAN ONCE. ONLY THE LAST 
             DEFINITION IS CONSIDERED.
  *ELEMENT, TYPE=C3D8, ELSET=Elset659

 ***WARNING: ELEMENT LABEL 659 HAS BEEN USED MORE THAN ONCE. ONLY THE LAST 
             DEFINITION IS CONSIDERED.
  *ELEMENT, TYPE=C3D8, ELSET=Elset660

 ***WARNING: ELEMENT LABEL 660 HAS BEEN USED MORE THAN ONCE. ONLY THE LAST 
             DEFINITION IS CONSIDERED.
  *ELEMENT, TYPE=C3D8, ELSET=Elset661

 ***WARNING: ELEMENT LABEL 661 HAS BEEN USED MORE THAN ONCE. ONLY THE LAST 
             DEFINITION IS CONSIDERED.
  *ELEMENT, TYPE=C3D8, ELSET=Elset662

 ***WARNING: ELEMENT LABEL 662 HAS BEEN USED MORE THAN ONCE. ONLY THE LAST 
             DEFINITION IS CONSIDERED.
  *ELEMENT, TYPE=C3D8, ELSET=Elset663

 ***WARNING: ELEMENT LABEL 663 HAS BEEN USED MORE THAN ONCE. ONLY THE LAST 
             DEFINITION IS CONSIDERED.
  *ELEMENT, TYPE=C3D8, ELSET=Elset681

 ***WARNING: ELEMENT LABEL 681 HAS BEEN USED MORE THAN ONCE. ONLY THE LAST 
             DEFINITION IS CONSIDERED.
  *ELEMENT, TYPE=C3D8, ELSET=Elset682

 ***WARNING: ELEMENT LABEL 682 HAS BEEN USED MORE THAN ONCE. ONLY THE LAST 
             DEFINITION IS CONSIDERED.
  *ELEMENT, TYPE=C3D8, ELSET=Elset683

 ***WARNING: ELEMENT LABEL 683 HAS BEEN USED MORE THAN ONCE. ONLY THE LAST 
             DEFINITION IS CONSIDERED.
  *ELEMENT, TYPE=C3D8, ELSET=Elset684

 ***WARNING: ELEMENT LABEL 684 HAS BEEN USED MORE THAN ONCE. ONLY THE LAST 
             DEFINITION IS CONSIDERED.
  *ELEMENT, TYPE=C3D8, ELSET=Elset685

 ***WARNING: ELEMENT LABEL 685 HAS BEEN USED MORE THAN ONCE. ONLY THE LAST 
             DEFINITION IS CONSIDERED.
  *ELEMENT, TYPE=C3D8, ELSET=Elset686

 ***WARNING: ELEMENT LABEL 686 HAS BEEN USED MORE THAN ONCE. ONLY THE LAST 
             DEFINITION IS CONSIDERED.
  *ELEMENT, TYPE=C3D8, ELSET=Elset687

 ***WARNING: ELEMENT LABEL 687 HAS BEEN USED MORE THAN ONCE. ONLY THE LAST 
             DEFINITION IS CONSIDERED.
  *ELEMENT, TYPE=C3D8, ELSET=Elset688

 ***WARNING: ELEMENT LABEL 688 HAS BEEN USED MORE THAN ONCE. ONLY THE LAST 
             DEFINITION IS CONSIDERED.
  *ELEMENT, TYPE=C3D8, ELSET=Elset689

 ***WARNING: ELEMENT LABEL 689 HAS BEEN USED MORE THAN ONCE. ONLY THE LAST 
             DEFINITION IS CONSIDERED.
  *ELEMENT, TYPE=C3D8, ELSET=Elset690

 ***WARNING: ELEMENT LABEL 690 HAS BEEN USED MORE THAN ONCE. ONLY THE LAST 
             DEFINITION IS CONSIDERED.
  *ELEMENT, TYPE=C3D8, ELSET=Elset691

 ***WARNING: ELEMENT LABEL 691 HAS BEEN USED MORE THAN ONCE. ONLY THE LAST 
             DEFINITION IS CONSIDERED.
  *ELEMENT, TYPE=C3D8, ELSET=Elset692

 ***WARNING: ELEMENT LABEL 692 HAS BEEN USED MORE THAN ONCE. ONLY THE LAST 
             DEFINITION IS CONSIDERED.
  *ELEMENT, TYPE=C3D8, ELSET=Elset693

 ***WARNING: ELEMENT LABEL 693 HAS BEEN USED MORE THAN ONCE. ONLY THE LAST 
             DEFINITION IS CONSIDERED.
  *ELEMENT, TYPE=C3D8, ELSET=Elset694

 ***WARNING: ELEMENT LABEL 694 HAS BEEN USED MORE THAN ONCE. ONLY THE LAST 
             DEFINITION IS CONSIDERED.
  *ELEMENT, TYPE=C3D8, ELSET=Elset695

 ***WARNING: ELEMENT LABEL 695 HAS BEEN USED MORE THAN ONCE. ONLY THE LAST 
             DEFINITION IS CONSIDERED.
  *ELEMENT, TYPE=C3D8, ELSET=Elset696

 ***WARNING: ELEMENT LABEL 696 HAS BEEN USED MORE THAN ONCE. ONLY THE LAST 
             DEFINITION IS CONSIDERED.
  *ELEMENT, TYPE=C3D8, ELSET=Elset697

 ***WARNING: ELEMENT LABEL 697 HAS BEEN USED MORE THAN ONCE. ONLY THE LAST 
             DEFINITION IS CONSIDERED.
  *ELEMENT, TYPE=C3D8, ELSET=Elset698

 ***WARNING: ELEMENT LABEL 698 HAS BEEN USED MORE THAN ONCE. ONLY THE LAST 
             DEFINITION IS CONSIDERED.
  *ELEMENT, TYPE=C3D8, ELSET=Elset699

 ***WARNING: ELEMENT LABEL 699 HAS BEEN USED MORE THAN ONCE. ONLY THE LAST 
             DEFINITION IS CONSIDERED.
  *ELEMENT, TYPE=C3D8, ELSET=Elset700

 ***WARNING: ELEMENT LABEL 700 HAS BEEN USED MORE THAN ONCE. ONLY THE LAST 
             DEFINITION IS CONSIDERED.
  *ELEMENT, TYPE=C3D8, ELSET=Elset701

 ***WARNING: ELEMENT LABEL 701 HAS BEEN USED MORE THAN ONCE. ONLY THE LAST 
             DEFINITION IS CONSIDERED.
  *ELEMENT, TYPE=C3D8, ELSET=Elset702

 ***WARNING: ELEMENT LABEL 702 HAS BEEN USED MORE THAN ONCE. ONLY THE LAST 
             DEFINITION IS CONSIDERED.
  *ELEMENT, TYPE=C3D8, ELSET=Elset703

 ***WARNING: ELEMENT LABEL 703 HAS BEEN USED MORE THAN ONCE. ONLY THE LAST 
             DEFINITION IS CONSIDERED.
  *ELEMENT, TYPE=C3D8, ELSET=Elset704

 ***WARNING: ELEMENT LABEL 704 HAS BEEN USED MORE THAN ONCE. ONLY THE LAST 
             DEFINITION IS CONSIDERED.
  *ELEMENT, TYPE=C3D8, ELSET=Elset705

 ***WARNING: ELEMENT LABEL 705 HAS BEEN USED MORE THAN ONCE. ONLY THE LAST 
             DEFINITION IS CONSIDERED.
  *ELEMENT, TYPE=C3D8, ELSET=Elset706

 ***WARNING: ELEMENT LABEL 706 HAS BEEN USED MORE THAN ONCE. ONLY THE LAST 
             DEFINITION IS CONSIDERED.
  *ELEMENT, TYPE=C3D8, ELSET=Elset707

 ***WARNING: ELEMENT LABEL 707 HAS BEEN USED MORE THAN ONCE. ONLY THE LAST 
             DEFINITION IS CONSIDERED.
  *ELEMENT, TYPE=C3D8, ELSET=Elset708

 ***WARNING: ELEMENT LABEL 708 HAS BEEN USED MORE THAN ONCE. ONLY THE LAST 
             DEFINITION IS CONSIDERED.
  *ELEMENT, TYPE=C3D8, ELSET=Elset726

 ***WARNING: ELEMENT LABEL 726 HAS BEEN USED MORE THAN ONCE. ONLY THE LAST 
             DEFINITION IS CONSIDERED.
  *ELEMENT, TYPE=C3D8, ELSET=Elset727

 ***WARNING: ELEMENT LABEL 727 HAS BEEN USED MORE THAN ONCE. ONLY THE LAST 
             DEFINITION IS CONSIDERED.
  *ELEMENT, TYPE=C3D8, ELSET=Elset728

 ***WARNING: ELEMENT LABEL 728 HAS BEEN USED MORE THAN ONCE. ONLY THE LAST 
             DEFINITION IS CONSIDERED.
  *ELEMENT, TYPE=C3D8, ELSET=Elset729

 ***WARNING: ELEMENT LABEL 729 HAS BEEN USED MORE THAN ONCE. ONLY THE LAST 
             DEFINITION IS CONSIDERED.
  *ELEMENT, TYPE=C3D8, ELSET=Elset730

 ***WARNING: ELEMENT LABEL 730 HAS BEEN USED MORE THAN ONCE. ONLY THE LAST 
             DEFINITION IS CONSIDERED.
  *ELEMENT, TYPE=C3D8, ELSET=Elset731

 ***WARNING: ELEMENT LABEL 731 HAS BEEN USED MORE THAN ONCE. ONLY THE LAST 
             DEFINITION IS CONSIDERED.
  *ELEMENT, TYPE=C3D8, ELSET=Elset732

 ***WARNING: ELEMENT LABEL 732 HAS BEEN USED MORE THAN ONCE. ONLY THE LAST 
             DEFINITION IS CONSIDERED.
  *ELEMENT, TYPE=C3D8, ELSET=Elset733

 ***WARNING: ELEMENT LABEL 733 HAS BEEN USED MORE THAN ONCE. ONLY THE LAST 
             DEFINITION IS CONSIDERED.
  *ELEMENT, TYPE=C3D8, ELSET=Elset734

 ***WARNING: ELEMENT LABEL 734 HAS BEEN USED MORE THAN ONCE. ONLY THE LAST 
             DEFINITION IS CONSIDERED.
  *ELEMENT, TYPE=C3D8, ELSET=Elset735

 ***WARNING: ELEMENT LABEL 735 HAS BEEN USED MORE THAN ONCE. ONLY THE LAST 
             DEFINITION IS CONSIDERED.
  *ELEMENT, TYPE=C3D8, ELSET=Elset736

 ***WARNING: ELEMENT LABEL 736 HAS BEEN USED MORE THAN ONCE. ONLY THE LAST 
             DEFINITION IS CONSIDERED.
  *ELEMENT, TYPE=C3D8, ELSET=Elset737

 ***WARNING: ELEMENT LABEL 737 HAS BEEN USED MORE THAN ONCE. ONLY THE LAST 
             DEFINITION IS CONSIDERED.
  *ELEMENT, TYPE=C3D8, ELSET=Elset738

 ***WARNING: ELEMENT LABEL 738 HAS BEEN USED MORE THAN ONCE. ONLY THE LAST 
             DEFINITION IS CONSIDERED.
  *ELEMENT, TYPE=C3D8, ELSET=Elset739

 ***WARNING: ELEMENT LABEL 739 HAS BEEN USED MORE THAN ONCE. ONLY THE LAST 
             DEFINITION IS CONSIDERED.
  *ELEMENT, TYPE=C3D8, ELSET=Elset740

 ***WARNING: ELEMENT LABEL 740 HAS BEEN USED MORE THAN ONCE. ONLY THE LAST 
             DEFINITION IS CONSIDERED.
  *ELEMENT, TYPE=C3D8, ELSET=Elset741

 ***WARNING: ELEMENT LABEL 741 HAS BEEN USED MORE THAN ONCE. ONLY THE LAST 
             DEFINITION IS CONSIDERED.
  *ELEMENT, TYPE=C3D8, ELSET=Elset742

 ***WARNING: ELEMENT LABEL 742 HAS BEEN USED MORE THAN ONCE. ONLY THE LAST 
             DEFINITION IS CONSIDERED.
  *ELEMENT, TYPE=C3D8, ELSET=Elset743

 ***WARNING: ELEMENT LABEL 743 HAS BEEN USED MORE THAN ONCE. ONLY THE LAST 
             DEFINITION IS CONSIDERED.
  *ELEMENT, TYPE=C3D8, ELSET=Elset744

 ***WARNING: ELEMENT LABEL 744 HAS BEEN USED MORE THAN ONCE. ONLY THE LAST 
             DEFINITION IS CONSIDERED.
  *ELEMENT, TYPE=C3D8, ELSET=Elset745

 ***WARNING: ELEMENT LABEL 745 HAS BEEN USED MORE THAN ONCE. ONLY THE LAST 
             DEFINITION IS CONSIDERED.
  *ELEMENT, TYPE=C3D8, ELSET=Elset746

 ***WARNING: ELEMENT LABEL 746 HAS BEEN USED MORE THAN ONCE. ONLY THE LAST 
             DEFINITION IS CONSIDERED.
  *ELEMENT, TYPE=C3D8, ELSET=Elset747

 ***WARNING: ELEMENT LABEL 747 HAS BEEN USED MORE THAN ONCE. ONLY THE LAST 
             DEFINITION IS CONSIDERED.
  *ELEMENT, TYPE=C3D8, ELSET=Elset748

 ***WARNING: ELEMENT LABEL 748 HAS BEEN USED MORE THAN ONCE. ONLY THE LAST 
             DEFINITION IS CONSIDERED.
  *ELEMENT, TYPE=C3D8, ELSET=Elset749

 ***WARNING: ELEMENT LABEL 749 HAS BEEN USED MORE THAN ONCE. ONLY THE LAST 
             DEFINITION IS CONSIDERED.
  *ELEMENT, TYPE=C3D8, ELSET=Elset750

 ***WARNING: ELEMENT LABEL 750 HAS BEEN USED MORE THAN ONCE. ONLY THE LAST 
             DEFINITION IS CONSIDERED.
  *ELEMENT, TYPE=C3D8, ELSET=Elset751

 ***WARNING: ELEMENT LABEL 751 HAS BEEN USED MORE THAN ONCE. ONLY THE LAST 
             DEFINITION IS CONSIDERED.
  *ELEMENT, TYPE=C3D8, ELSET=Elset752

 ***WARNING: ELEMENT LABEL 752 HAS BEEN USED MORE THAN ONCE. ONLY THE LAST 
             DEFINITION IS CONSIDERED.
  *ELEMENT, TYPE=C3D8, ELSET=Elset753

 ***WARNING: ELEMENT LABEL 753 HAS BEEN USED MORE THAN ONCE. ONLY THE LAST 
             DEFINITION IS CONSIDERED.
  *ELEMENT, TYPE=C3D8, ELSET=Elset771

 ***WARNING: ELEMENT LABEL 771 HAS BEEN USED MORE THAN ONCE. ONLY THE LAST 
             DEFINITION IS CONSIDERED.
  *ELEMENT, TYPE=C3D8, ELSET=Elset772

 ***WARNING: ELEMENT LABEL 772 HAS BEEN USED MORE THAN ONCE. ONLY THE LAST 
             DEFINITION IS CONSIDERED.
  *ELEMENT, TYPE=C3D8, ELSET=Elset773

 ***WARNING: ELEMENT LABEL 773 HAS BEEN USED MORE THAN ONCE. ONLY THE LAST 
             DEFINITION IS CONSIDERED.
  *ELEMENT, TYPE=C3D8, ELSET=Elset774

 ***WARNING: ELEMENT LABEL 774 HAS BEEN USED MORE THAN ONCE. ONLY THE LAST 
             DEFINITION IS CONSIDERED.
  *ELEMENT, TYPE=C3D8, ELSET=Elset775

 ***WARNING: ELEMENT LABEL 775 HAS BEEN USED MORE THAN ONCE. ONLY THE LAST 
             DEFINITION IS CONSIDERED.
  *ELEMENT, TYPE=C3D8, ELSET=Elset776

 ***WARNING: ELEMENT LABEL 776 HAS BEEN USED MORE THAN ONCE. ONLY THE LAST 
             DEFINITION IS CONSIDERED.
  *ELEMENT, TYPE=C3D8, ELSET=Elset777

 ***WARNING: ELEMENT LABEL 777 HAS BEEN USED MORE THAN ONCE. ONLY THE LAST 
             DEFINITION IS CONSIDERED.
  *ELEMENT, TYPE=C3D8, ELSET=Elset778

 ***WARNING: ELEMENT LABEL 778 HAS BEEN USED MORE THAN ONCE. ONLY THE LAST 
             DEFINITION IS CONSIDERED.
  *ELEMENT, TYPE=C3D8, ELSET=Elset779

 ***WARNING: ELEMENT LABEL 779 HAS BEEN USED MORE THAN ONCE. ONLY THE LAST 
             DEFINITION IS CONSIDERED.
  *ELEMENT, TYPE=C3D8, ELSET=Elset780

 ***WARNING: ELEMENT LABEL 780 HAS BEEN USED MORE THAN ONCE. ONLY THE LAST 
             DEFINITION IS CONSIDERED.
  *ELEMENT, TYPE=C3D8, ELSET=Elset781

 ***WARNING: ELEMENT LABEL 781 HAS BEEN USED MORE THAN ONCE. ONLY THE LAST 
             DEFINITION IS CONSIDERED.
  *ELEMENT, TYPE=C3D8, ELSET=Elset782

 ***WARNING: ELEMENT LABEL 782 HAS BEEN USED MORE THAN ONCE. ONLY THE LAST 
             DEFINITION IS CONSIDERED.
  *ELEMENT, TYPE=C3D8, ELSET=Elset783

 ***WARNING: ELEMENT LABEL 783 HAS BEEN USED MORE THAN ONCE. ONLY THE LAST 
             DEFINITION IS CONSIDERED.
  *ELEMENT, TYPE=C3D8, ELSET=Elset784

 ***WARNING: ELEMENT LABEL 784 HAS BEEN USED MORE THAN ONCE. ONLY THE LAST 
             DEFINITION IS CONSIDERED.
  *ELEMENT, TYPE=C3D8, ELSET=Elset785

 ***WARNING: ELEMENT LABEL 785 HAS BEEN USED MORE THAN ONCE. ONLY THE LAST 
             DEFINITION IS CONSIDERED.
  *ELEMENT, TYPE=C3D8, ELSET=Elset786

 ***WARNING: ELEMENT LABEL 786 HAS BEEN USED MORE THAN ONCE. ONLY THE LAST 
             DEFINITION IS CONSIDERED.
  *ELEMENT, TYPE=C3D8, ELSET=Elset787

 ***WARNING: ELEMENT LABEL 787 HAS BEEN USED MORE THAN ONCE. ONLY THE LAST 
             DEFINITION IS CONSIDERED.
  *ELEMENT, TYPE=C3D8, ELSET=Elset788

 ***WARNING: ELEMENT LABEL 788 HAS BEEN USED MORE THAN ONCE. ONLY THE LAST 
             DEFINITION IS CONSIDERED.
  *ELEMENT, TYPE=C3D8, ELSET=Elset789

 ***WARNING: ELEMENT LABEL 789 HAS BEEN USED MORE THAN ONCE. ONLY THE LAST 
             DEFINITION IS CONSIDERED.
  *ELEMENT, TYPE=C3D8, ELSET=Elset790

 ***WARNING: ELEMENT LABEL 790 HAS BEEN USED MORE THAN ONCE. ONLY THE LAST 
             DEFINITION IS CONSIDERED.
  *ELEMENT, TYPE=C3D8, ELSET=Elset791

 ***WARNING: ELEMENT LABEL 791 HAS BEEN USED MORE THAN ONCE. ONLY THE LAST 
             DEFINITION IS CONSIDERED.
  *ELEMENT, TYPE=C3D8, ELSET=Elset792

 ***WARNING: ELEMENT LABEL 792 HAS BEEN USED MORE THAN ONCE. ONLY THE LAST 
             DEFINITION IS CONSIDERED.
  *ELEMENT, TYPE=C3D8, ELSET=Elset793

 ***WARNING: ELEMENT LABEL 793 HAS BEEN USED MORE THAN ONCE. ONLY THE LAST 
             DEFINITION IS CONSIDERED.
  *ELEMENT, TYPE=C3D8, ELSET=Elset794

 ***WARNING: ELEMENT LABEL 794 HAS BEEN USED MORE THAN ONCE. ONLY THE LAST 
             DEFINITION IS CONSIDERED.
  *ELEMENT, TYPE=C3D8, ELSET=Elset795

 ***WARNING: ELEMENT LABEL 795 HAS BEEN USED MORE THAN ONCE. ONLY THE LAST 
             DEFINITION IS CONSIDERED.
  *ELEMENT, TYPE=C3D8, ELSET=Elset796

 ***WARNING: ELEMENT LABEL 796 HAS BEEN USED MORE THAN ONCE. ONLY THE LAST 
             DEFINITION IS CONSIDERED.
  *ELEMENT, TYPE=C3D8, ELSET=Elset797

 ***WARNING: ELEMENT LABEL 797 HAS BEEN USED MORE THAN ONCE. ONLY THE LAST 
             DEFINITION IS CONSIDERED.
  *ELEMENT, TYPE=C3D8, ELSET=Elset798

 ***WARNING: ELEMENT LABEL 798 HAS BEEN USED MORE THAN ONCE. ONLY THE LAST 
             DEFINITION IS CONSIDERED.
  *ELEMENT, TYPE=C3D8, ELSET=Elset816

 ***WARNING: ELEMENT LABEL 816 HAS BEEN USED MORE THAN ONCE. ONLY THE LAST 
             DEFINITION IS CONSIDERED.
  *ELEMENT, TYPE=C3D8, ELSET=Elset817

 ***WARNING: ELEMENT LABEL 817 HAS BEEN USED MORE THAN ONCE. ONLY THE LAST 
             DEFINITION IS CONSIDERED.
  *ELEMENT, TYPE=C3D8, ELSET=Elset818

 ***WARNING: ELEMENT LABEL 818 HAS BEEN USED MORE THAN ONCE. ONLY THE LAST 
             DEFINITION IS CONSIDERED.
  *ELEMENT, TYPE=C3D8, ELSET=Elset819

 ***WARNING: ELEMENT LABEL 819 HAS BEEN USED MORE THAN ONCE. ONLY THE LAST 
             DEFINITION IS CONSIDERED.
  *ELEMENT, TYPE=C3D8, ELSET=Elset820

 ***WARNING: ELEMENT LABEL 820 HAS BEEN USED MORE THAN ONCE. ONLY THE LAST 
             DEFINITION IS CONSIDERED.
  *ELEMENT, TYPE=C3D8, ELSET=Elset821

 ***WARNING: ELEMENT LABEL 821 HAS BEEN USED MORE THAN ONCE. ONLY THE LAST 
             DEFINITION IS CONSIDERED.
  *ELEMENT, TYPE=C3D8, ELSET=Elset822

 ***WARNING: ELEMENT LABEL 822 HAS BEEN USED MORE THAN ONCE. ONLY THE LAST 
             DEFINITION IS CONSIDERED.
  *ELEMENT, TYPE=C3D8, ELSET=Elset823

 ***WARNING: ELEMENT LABEL 823 HAS BEEN USED MORE THAN ONCE. ONLY THE LAST 
             DEFINITION IS CONSIDERED.
  *ELEMENT, TYPE=C3D8, ELSET=Elset824

 ***WARNING: ELEMENT LABEL 824 HAS BEEN USED MORE THAN ONCE. ONLY THE LAST 
             DEFINITION IS CONSIDERED.
  *ELEMENT, TYPE=C3D8, ELSET=Elset825

 ***WARNING: ELEMENT LABEL 825 HAS BEEN USED MORE THAN ONCE. ONLY THE LAST 
             DEFINITION IS CONSIDERED.
  *ELEMENT, TYPE=C3D8, ELSET=Elset826

 ***WARNING: ELEMENT LABEL 826 HAS BEEN USED MORE THAN ONCE. ONLY THE LAST 
             DEFINITION IS CONSIDERED.
  *ELEMENT, TYPE=C3D8, ELSET=Elset827

 ***WARNING: ELEMENT LABEL 827 HAS BEEN USED MORE THAN ONCE. ONLY THE LAST 
             DEFINITION IS CONSIDERED.
  *ELEMENT, TYPE=C3D8, ELSET=Elset828

 ***WARNING: ELEMENT LABEL 828 HAS BEEN USED MORE THAN ONCE. ONLY THE LAST 
             DEFINITION IS CONSIDERED.
  *ELEMENT, TYPE=C3D8, ELSET=Elset829

 ***WARNING: ELEMENT LABEL 829 HAS BEEN USED MORE THAN ONCE. ONLY THE LAST 
             DEFINITION IS CONSIDERED.
  *ELEMENT, TYPE=C3D8, ELSET=Elset830

 ***WARNING: ELEMENT LABEL 830 HAS BEEN USED MORE THAN ONCE. ONLY THE LAST 
             DEFINITION IS CONSIDERED.
  *ELEMENT, TYPE=C3D8, ELSET=Elset831

 ***WARNING: ELEMENT LABEL 831 HAS BEEN USED MORE THAN ONCE. ONLY THE LAST 
             DEFINITION IS CONSIDERED.
  *ELEMENT, TYPE=C3D8, ELSET=Elset832

 ***WARNING: ELEMENT LABEL 832 HAS BEEN USED MORE THAN ONCE. ONLY THE LAST 
             DEFINITION IS CONSIDERED.
  *ELEMENT, TYPE=C3D8, ELSET=Elset833

 ***WARNING: ELEMENT LABEL 833 HAS BEEN USED MORE THAN ONCE. ONLY THE LAST 
             DEFINITION IS CONSIDERED.
  *ELEMENT, TYPE=C3D8, ELSET=Elset834

 ***WARNING: ELEMENT LABEL 834 HAS BEEN USED MORE THAN ONCE. ONLY THE LAST 
             DEFINITION IS CONSIDERED.
  *ELEMENT, TYPE=C3D8, ELSET=Elset835

 ***WARNING: ELEMENT LABEL 835 HAS BEEN USED MORE THAN ONCE. ONLY THE LAST 
             DEFINITION IS CONSIDERED.
  *ELEMENT, TYPE=C3D8, ELSET=Elset836

 ***WARNING: ELEMENT LABEL 836 HAS BEEN USED MORE THAN ONCE. ONLY THE LAST 
             DEFINITION IS CONSIDERED.
  *ELEMENT, TYPE=C3D8, ELSET=Elset837

 ***WARNING: ELEMENT LABEL 837 HAS BEEN USED MORE THAN ONCE. ONLY THE LAST 
             DEFINITION IS CONSIDERED.
  *ELEMENT, TYPE=C3D8, ELSET=Elset838

 ***WARNING: ELEMENT LABEL 838 HAS BEEN USED MORE THAN ONCE. ONLY THE LAST 
             DEFINITION IS CONSIDERED.
  *ELEMENT, TYPE=C3D8, ELSET=Elset839

 ***WARNING: ELEMENT LABEL 839 HAS BEEN USED MORE THAN ONCE. ONLY THE LAST 
             DEFINITION IS CONSIDERED.
  *ELEMENT, TYPE=C3D8, ELSET=Elset840

 ***WARNING: ELEMENT LABEL 840 HAS BEEN USED MORE THAN ONCE. ONLY THE LAST 
             DEFINITION IS CONSIDERED.
  *ELEMENT, TYPE=C3D8, ELSET=Elset841

 ***WARNING: ELEMENT LABEL 841 HAS BEEN USED MORE THAN ONCE. ONLY THE LAST 
             DEFINITION IS CONSIDERED.
  *ELEMENT, TYPE=C3D8, ELSET=Elset842

 ***WARNING: ELEMENT LABEL 842 HAS BEEN USED MORE THAN ONCE. ONLY THE LAST 
             DEFINITION IS CONSIDERED.
  *ELEMENT, TYPE=C3D8, ELSET=Elset843

 ***WARNING: ELEMENT LABEL 843 HAS BEEN USED MORE THAN ONCE. ONLY THE LAST 
             DEFINITION IS CONSIDERED.
  *ELEMENT, TYPE=C3D8, ELSET=Elset862

 ***WARNING: ELEMENT LABEL 862 HAS BEEN USED MORE THAN ONCE. ONLY THE LAST 
             DEFINITION IS CONSIDERED.
  *ELEMENT, TYPE=C3D8, ELSET=Elset863

 ***WARNING: ELEMENT LABEL 863 HAS BEEN USED MORE THAN ONCE. ONLY THE LAST 
             DEFINITION IS CONSIDERED.
  *ELEMENT, TYPE=C3D8, ELSET=Elset864

 ***WARNING: ELEMENT LABEL 864 HAS BEEN USED MORE THAN ONCE. ONLY THE LAST 
             DEFINITION IS CONSIDERED.
  *ELEMENT, TYPE=C3D8, ELSET=Elset865

 ***WARNING: ELEMENT LABEL 865 HAS BEEN USED MORE THAN ONCE. ONLY THE LAST 
             DEFINITION IS CONSIDERED.
  *ELEMENT, TYPE=C3D8, ELSET=Elset866

 ***WARNING: ELEMENT LABEL 866 HAS BEEN USED MORE THAN ONCE. ONLY THE LAST 
             DEFINITION IS CONSIDERED.
  *ELEMENT, TYPE=C3D8, ELSET=Elset867

 ***WARNING: ELEMENT LABEL 867 HAS BEEN USED MORE THAN ONCE. ONLY THE LAST 
             DEFINITION IS CONSIDERED.
  *ELEMENT, TYPE=C3D8, ELSET=Elset868

 ***WARNING: ELEMENT LABEL 868 HAS BEEN USED MORE THAN ONCE. ONLY THE LAST 
             DEFINITION IS CONSIDERED.
  *ELEMENT, TYPE=C3D8, ELSET=Elset869

 ***WARNING: ELEMENT LABEL 869 HAS BEEN USED MORE THAN ONCE. ONLY THE LAST 
             DEFINITION IS CONSIDERED.
  *ELEMENT, TYPE=C3D8, ELSET=Elset870

 ***WARNING: ELEMENT LABEL 870 HAS BEEN USED MORE THAN ONCE. ONLY THE LAST 
             DEFINITION IS CONSIDERED.
  *ELEMENT, TYPE=C3D8, ELSET=Elset871

 ***WARNING: ELEMENT LABEL 871 HAS BEEN USED MORE THAN ONCE. ONLY THE LAST 
             DEFINITION IS CONSIDERED.
  *ELEMENT, TYPE=C3D8, ELSET=Elset872

 ***WARNING: ELEMENT LABEL 872 HAS BEEN USED MORE THAN ONCE. ONLY THE LAST 
             DEFINITION IS CONSIDERED.
  *ELEMENT, TYPE=C3D8, ELSET=Elset873

 ***WARNING: ELEMENT LABEL 873 HAS BEEN USED MORE THAN ONCE. ONLY THE LAST 
             DEFINITION IS CONSIDERED.
  *ELEMENT, TYPE=C3D8, ELSET=Elset874

 ***WARNING: ELEMENT LABEL 874 HAS BEEN USED MORE THAN ONCE. ONLY THE LAST 
             DEFINITION IS CONSIDERED.
  *ELEMENT, TYPE=C3D8, ELSET=Elset875

 ***WARNING: ELEMENT LABEL 875 HAS BEEN USED MORE THAN ONCE. ONLY THE LAST 
             DEFINITION IS CONSIDERED.
  *ELEMENT, TYPE=C3D8, ELSET=Elset876

 ***WARNING: ELEMENT LABEL 876 HAS BEEN USED MORE THAN ONCE. ONLY THE LAST 
             DEFINITION IS CONSIDERED.
  *ELEMENT, TYPE=C3D8, ELSET=Elset877

 ***WARNING: ELEMENT LABEL 877 HAS BEEN USED MORE THAN ONCE. ONLY THE LAST 
             DEFINITION IS CONSIDERED.
  *ELEMENT, TYPE=C3D8, ELSET=Elset878

 ***WARNING: ELEMENT LABEL 878 HAS BEEN USED MORE THAN ONCE. ONLY THE LAST 
             DEFINITION IS CONSIDERED.
  *ELEMENT, TYPE=C3D8, ELSET=Elset879

 ***WARNING: ELEMENT LABEL 879 HAS BEEN USED MORE THAN ONCE. ONLY THE LAST 
             DEFINITION IS CONSIDERED.
  *ELEMENT, TYPE=C3D8, ELSET=Elset880

 ***WARNING: ELEMENT LABEL 880 HAS BEEN USED MORE THAN ONCE. ONLY THE LAST 
             DEFINITION IS CONSIDERED.
  *ELEMENT, TYPE=C3D8, ELSET=Elset881

 ***WARNING: ELEMENT LABEL 881 HAS BEEN USED MORE THAN ONCE. ONLY THE LAST 
             DEFINITION IS CONSIDERED.
  *ELEMENT, TYPE=C3D8, ELSET=Elset882

 ***WARNING: ELEMENT LABEL 882 HAS BEEN USED MORE THAN ONCE. ONLY THE LAST 
             DEFINITION IS CONSIDERED.
  *ELEMENT, TYPE=C3D8, ELSET=Elset883

 ***WARNING: ELEMENT LABEL 883 HAS BEEN USED MORE THAN ONCE. ONLY THE LAST 
             DEFINITION IS CONSIDERED.
  *ELEMENT, TYPE=C3D8, ELSET=Elset884

 ***WARNING: ELEMENT LABEL 884 HAS BEEN USED MORE THAN ONCE. ONLY THE LAST 
             DEFINITION IS CONSIDERED.
  *ELEMENT, TYPE=C3D8, ELSET=Elset885

 ***WARNING: ELEMENT LABEL 885 HAS BEEN USED MORE THAN ONCE. ONLY THE LAST 
             DEFINITION IS CONSIDERED.
  *ELEMENT, TYPE=C3D8, ELSET=Elset886

 ***WARNING: ELEMENT LABEL 886 HAS BEEN USED MORE THAN ONCE. ONLY THE LAST 
             DEFINITION IS CONSIDERED.
  *ELEMENT, TYPE=C3D8, ELSET=Elset887

 ***WARNING: ELEMENT LABEL 887 HAS BEEN USED MORE THAN ONCE. ONLY THE LAST 
             DEFINITION IS CONSIDERED.
  *ELEMENT, TYPE=C3D8, ELSET=Elset888

 ***WARNING: ELEMENT LABEL 888 HAS BEEN USED MORE THAN ONCE. ONLY THE LAST 
             DEFINITION IS CONSIDERED.
  *ELEMENT, TYPE=C3D8, ELSET=Elset907

 ***WARNING: ELEMENT LABEL 907 HAS BEEN USED MORE THAN ONCE. ONLY THE LAST 
             DEFINITION IS CONSIDERED.
  *ELEMENT, TYPE=C3D8, ELSET=Elset908

 ***WARNING: ELEMENT LABEL 908 HAS BEEN USED MORE THAN ONCE. ONLY THE LAST 
             DEFINITION IS CONSIDERED.
  *ELEMENT, TYPE=C3D8, ELSET=Elset909

 ***WARNING: ELEMENT LABEL 909 HAS BEEN USED MORE THAN ONCE. ONLY THE LAST 
             DEFINITION IS CONSIDERED.
  *ELEMENT, TYPE=C3D8, ELSET=Elset910

 ***WARNING: ELEMENT LABEL 910 HAS BEEN USED MORE THAN ONCE. ONLY THE LAST 
             DEFINITION IS CONSIDERED.
  *ELEMENT, TYPE=C3D8, ELSET=Elset911

 ***WARNING: ELEMENT LABEL 911 HAS BEEN USED MORE THAN ONCE. ONLY THE LAST 
             DEFINITION IS CONSIDERED.
  *ELEMENT, TYPE=C3D8, ELSET=Elset912

 ***WARNING: ELEMENT LABEL 912 HAS BEEN USED MORE THAN ONCE. ONLY THE LAST 
             DEFINITION IS CONSIDERED.
  *ELEMENT, TYPE=C3D8, ELSET=Elset913

 ***WARNING: ELEMENT LABEL 913 HAS BEEN USED MORE THAN ONCE. ONLY THE LAST 
             DEFINITION IS CONSIDERED.
  *ELEMENT, TYPE=C3D8, ELSET=Elset914

 ***WARNING: ELEMENT LABEL 914 HAS BEEN USED MORE THAN ONCE. ONLY THE LAST 
             DEFINITION IS CONSIDERED.
  *ELEMENT, TYPE=C3D8, ELSET=Elset915

 ***WARNING: ELEMENT LABEL 915 HAS BEEN USED MORE THAN ONCE. ONLY THE LAST 
             DEFINITION IS CONSIDERED.
  *ELEMENT, TYPE=C3D8, ELSET=Elset916

 ***WARNING: ELEMENT LABEL 916 HAS BEEN USED MORE THAN ONCE. ONLY THE LAST 
             DEFINITION IS CONSIDERED.
  *ELEMENT, TYPE=C3D8, ELSET=Elset917

 ***WARNING: ELEMENT LABEL 917 HAS BEEN USED MORE THAN ONCE. ONLY THE LAST 
             DEFINITION IS CONSIDERED.
  *ELEMENT, TYPE=C3D8, ELSET=Elset918

 ***WARNING: ELEMENT LABEL 918 HAS BEEN USED MORE THAN ONCE. ONLY THE LAST 
             DEFINITION IS CONSIDERED.
  *ELEMENT, TYPE=C3D8, ELSET=Elset919

 ***WARNING: ELEMENT LABEL 919 HAS BEEN USED MORE THAN ONCE. ONLY THE LAST 
             DEFINITION IS CONSIDERED.
  *ELEMENT, TYPE=C3D8, ELSET=Elset920

 ***WARNING: ELEMENT LABEL 920 HAS BEEN USED MORE THAN ONCE. ONLY THE LAST 
             DEFINITION IS CONSIDERED.
  *ELEMENT, TYPE=C3D8, ELSET=Elset921

 ***WARNING: ELEMENT LABEL 921 HAS BEEN USED MORE THAN ONCE. ONLY THE LAST 
             DEFINITION IS CONSIDERED.
  *ELEMENT, TYPE=C3D8, ELSET=Elset922

 ***WARNING: ELEMENT LABEL 922 HAS BEEN USED MORE THAN ONCE. ONLY THE LAST 
             DEFINITION IS CONSIDERED.
  *ELEMENT, TYPE=C3D8, ELSET=Elset923

 ***WARNING: ELEMENT LABEL 923 HAS BEEN USED MORE THAN ONCE. ONLY THE LAST 
             DEFINITION IS CONSIDERED.
  *ELEMENT, TYPE=C3D8, ELSET=Elset924

 ***WARNING: ELEMENT LABEL 924 HAS BEEN USED MORE THAN ONCE. ONLY THE LAST 
             DEFINITION IS CONSIDERED.
  *ELEMENT, TYPE=C3D8, ELSET=Elset925

 ***WARNING: ELEMENT LABEL 925 HAS BEEN USED MORE THAN ONCE. ONLY THE LAST 
             DEFINITION IS CONSIDERED.
  *ELEMENT, TYPE=C3D8, ELSET=Elset926

 ***WARNING: ELEMENT LABEL 926 HAS BEEN USED MORE THAN ONCE. ONLY THE LAST 
             DEFINITION IS CONSIDERED.
  *ELEMENT, TYPE=C3D8, ELSET=Elset927

 ***WARNING: ELEMENT LABEL 927 HAS BEEN USED MORE THAN ONCE. ONLY THE LAST 
             DEFINITION IS CONSIDERED.
  *ELEMENT, TYPE=C3D8, ELSET=Elset928

 ***WARNING: ELEMENT LABEL 928 HAS BEEN USED MORE THAN ONCE. ONLY THE LAST 
             DEFINITION IS CONSIDERED.
  *ELEMENT, TYPE=C3D8, ELSET=Elset929

 ***WARNING: ELEMENT LABEL 929 HAS BEEN USED MORE THAN ONCE. ONLY THE LAST 
             DEFINITION IS CONSIDERED.
  *ELEMENT, TYPE=C3D8, ELSET=Elset930

 ***WARNING: ELEMENT LABEL 930 HAS BEEN USED MORE THAN ONCE. ONLY THE LAST 
             DEFINITION IS CONSIDERED.
  *ELEMENT, TYPE=C3D8, ELSET=Elset931

 ***WARNING: ELEMENT LABEL 931 HAS BEEN USED MORE THAN ONCE. ONLY THE LAST 
             DEFINITION IS CONSIDERED.
  *ELEMENT, TYPE=C3D8, ELSET=Elset932

 ***WARNING: ELEMENT LABEL 932 HAS BEEN USED MORE THAN ONCE. ONLY THE LAST 
             DEFINITION IS CONSIDERED.
  *ELEMENT, TYPE=C3D8, ELSET=Elset933

 ***WARNING: ELEMENT LABEL 933 HAS BEEN USED MORE THAN ONCE. ONLY THE LAST 
             DEFINITION IS CONSIDERED.
  *ELEMENT, TYPE=C3D8, ELSET=Elset953

 ***WARNING: ELEMENT LABEL 953 HAS BEEN USED MORE THAN ONCE. ONLY THE LAST 
             DEFINITION IS CONSIDERED.
  *ELEMENT, TYPE=C3D8, ELSET=Elset954

 ***WARNING: ELEMENT LABEL 954 HAS BEEN USED MORE THAN ONCE. ONLY THE LAST 
             DEFINITION IS CONSIDERED.
  *ELEMENT, TYPE=C3D8, ELSET=Elset955

 ***WARNING: ELEMENT LABEL 955 HAS BEEN USED MORE THAN ONCE. ONLY THE LAST 
             DEFINITION IS CONSIDERED.
  *ELEMENT, TYPE=C3D8, ELSET=Elset956

 ***WARNING: ELEMENT LABEL 956 HAS BEEN USED MORE THAN ONCE. ONLY THE LAST 
             DEFINITION IS CONSIDERED.
  *ELEMENT, TYPE=C3D8, ELSET=Elset957

 ***WARNING: ELEMENT LABEL 957 HAS BEEN USED MORE THAN ONCE. ONLY THE LAST 
             DEFINITION IS CONSIDERED.
  *ELEMENT, TYPE=C3D8, ELSET=Elset958

 ***WARNING: ELEMENT LABEL 958 HAS BEEN USED MORE THAN ONCE. ONLY THE LAST 
             DEFINITION IS CONSIDERED.
  *ELEMENT, TYPE=C3D8, ELSET=Elset959

 ***WARNING: ELEMENT LABEL 959 HAS BEEN USED MORE THAN ONCE. ONLY THE LAST 
             DEFINITION IS CONSIDERED.
  *ELEMENT, TYPE=C3D8, ELSET=Elset960

 ***WARNING: ELEMENT LABEL 960 HAS BEEN USED MORE THAN ONCE. ONLY THE LAST 
             DEFINITION IS CONSIDERED.
  *ELEMENT, TYPE=C3D8, ELSET=Elset961

 ***WARNING: ELEMENT LABEL 961 HAS BEEN USED MORE THAN ONCE. ONLY THE LAST 
             DEFINITION IS CONSIDERED.
  *ELEMENT, TYPE=C3D8, ELSET=Elset962

 ***WARNING: ELEMENT LABEL 962 HAS BEEN USED MORE THAN ONCE. ONLY THE LAST 
             DEFINITION IS CONSIDERED.
  *ELEMENT, TYPE=C3D8, ELSET=Elset963

 ***WARNING: ELEMENT LABEL 963 HAS BEEN USED MORE THAN ONCE. ONLY THE LAST 
             DEFINITION IS CONSIDERED.
  *ELEMENT, TYPE=C3D8, ELSET=Elset964

 ***WARNING: ELEMENT LABEL 964 HAS BEEN USED MORE THAN ONCE. ONLY THE LAST 
             DEFINITION IS CONSIDERED.
  *ELEMENT, TYPE=C3D8, ELSET=Elset965

 ***WARNING: ELEMENT LABEL 965 HAS BEEN USED MORE THAN ONCE. ONLY THE LAST 
             DEFINITION IS CONSIDERED.
  *ELEMENT, TYPE=C3D8, ELSET=Elset966

 ***WARNING: ELEMENT LABEL 966 HAS BEEN USED MORE THAN ONCE. ONLY THE LAST 
             DEFINITION IS CONSIDERED.
  *ELEMENT, TYPE=C3D8, ELSET=Elset967

 ***WARNING: ELEMENT LABEL 967 HAS BEEN USED MORE THAN ONCE. ONLY THE LAST 
             DEFINITION IS CONSIDERED.
  *ELEMENT, TYPE=C3D8, ELSET=Elset968

 ***WARNING: ELEMENT LABEL 968 HAS BEEN USED MORE THAN ONCE. ONLY THE LAST 
             DEFINITION IS CONSIDERED.
  *ELEMENT, TYPE=C3D8, ELSET=Elset969

 ***WARNING: ELEMENT LABEL 969 HAS BEEN USED MORE THAN ONCE. ONLY THE LAST 
             DEFINITION IS CONSIDERED.
  *ELEMENT, TYPE=C3D8, ELSET=Elset970

 ***WARNING: ELEMENT LABEL 970 HAS BEEN USED MORE THAN ONCE. ONLY THE LAST 
             DEFINITION IS CONSIDERED.
  *ELEMENT, TYPE=C3D8, ELSET=Elset971

 ***WARNING: ELEMENT LABEL 971 HAS BEEN USED MORE THAN ONCE. ONLY THE LAST 
             DEFINITION IS CONSIDERED.
  *ELEMENT, TYPE=C3D8, ELSET=Elset972

 ***WARNING: ELEMENT LABEL 972 HAS BEEN USED MORE THAN ONCE. ONLY THE LAST 
             DEFINITION IS CONSIDERED.
  *ELEMENT, TYPE=C3D8, ELSET=Elset973

 ***WARNING: ELEMENT LABEL 973 HAS BEEN USED MORE THAN ONCE. ONLY THE LAST 
             DEFINITION IS CONSIDERED.
  *ELEMENT, TYPE=C3D8, ELSET=Elset974

 ***WARNING: ELEMENT LABEL 974 HAS BEEN USED MORE THAN ONCE. ONLY THE LAST 
             DEFINITION IS CONSIDERED.
  *ELEMENT, TYPE=C3D8, ELSET=Elset975

 ***WARNING: ELEMENT LABEL 975 HAS BEEN USED MORE THAN ONCE. ONLY THE LAST 
             DEFINITION IS CONSIDERED.
  *ELEMENT, TYPE=C3D8, ELSET=Elset976

 ***WARNING: ELEMENT LABEL 976 HAS BEEN USED MORE THAN ONCE. ONLY THE LAST 
             DEFINITION IS CONSIDERED.
  *ELEMENT, TYPE=C3D8, ELSET=Elset977

 ***WARNING: ELEMENT LABEL 977 HAS BEEN USED MORE THAN ONCE. ONLY THE LAST 
             DEFINITION IS CONSIDERED.
  *ELEMENT, TYPE=C3D8, ELSET=Elset978

 ***WARNING: ELEMENT LABEL 978 HAS BEEN USED MORE THAN ONCE. ONLY THE LAST 
             DEFINITION IS CONSIDERED.
  *ELEMENT, TYPE=C3D8, ELSET=Elset999

 ***WARNING: ELEMENT LABEL 999 HAS BEEN USED MORE THAN ONCE. ONLY THE LAST 
             DEFINITION IS CONSIDERED.
  *ELEMENT, TYPE=C3D8, ELSET=Elset1000

 ***WARNING: ELEMENT LABEL 1000 HAS BEEN USED MORE THAN ONCE. ONLY THE LAST 
             DEFINITION IS CONSIDERED.
  *ELEMENT, TYPE=C3D8, ELSET=Elset1001

 ***WARNING: ELEMENT LABEL 1001 HAS BEEN USED MORE THAN ONCE. ONLY THE LAST 
             DEFINITION IS CONSIDERED.
  *NSET, NSET=TOPNODES
  *NSET, NSET=BOTNODES
  *NODE
  *NSET, NSET=REF_NODE
  *INCLUDE, input=/home/ms20s284/FRACTIB/04_Results/03_hFE/453_R_79_M/Steps/Step01.inp

  *** INPUT DATA IS READ FROM FILE /home/ms20s284/FRACTIB/04_Results/03_hFE/453_R_79_M/Steps/Step01.inp                                                                                                                                                                                           

  *INCLUDE, input=/home/ms20s284/FRACTIB/04_Results/03_hFE/453_R_79_M/Steps/Step02.inp

  *** INPUT DATA IS READ FROM FILE /home/ms20s284/FRACTIB/04_Results/03_hFE/453_R_79_M/Steps/Step02.inp                                                                                                                                                                                           

  *INCLUDE, input=/home/ms20s284/FRACTIB/04_Results/03_hFE/453_R_79_M/Steps/Step03.inp

  *** INPUT DATA IS READ FROM FILE /home/ms20s284/FRACTIB/04_Results/03_hFE/453_R_79_M/Steps/Step03.inp                                                                                                                                                                                           

  *INCLUDE, input=/home/ms20s284/FRACTIB/04_Results/03_hFE/453_R_79_M/Steps/Step04.inp

  *** INPUT DATA IS READ FROM FILE /home/ms20s284/FRACTIB/04_Results/03_hFE/453_R_79_M/Steps/Step04.inp                                                                                                                                                                                           

  *INCLUDE, input=/home/ms20s284/FRACTIB/04_Results/03_hFE/453_R_79_M/Steps/Step05.inp

  *** INPUT DATA IS READ FROM FILE /home/ms20s284/FRACTIB/04_Results/03_hFE/453_R_79_M/Steps/Step05.inp                                                                                                                                                                                           

  *INCLUDE, input=/home/ms20s284/FRACTIB/04_Results/03_hFE/453_R_79_M/Steps/Step06.inp

  *** INPUT DATA IS READ FROM FILE /home/ms20s284/FRACTIB/04_Results/03_hFE/453_R_79_M/Steps/Step06.inp                                                                                                                                                                                           

  *INCLUDE, input=/home/ms20s284/FRACTIB/04_Results/03_hFE/453_R_79_M/Steps/Step07.inp

  *** INPUT DATA IS READ FROM FILE /home/ms20s284/FRACTIB/04_Results/03_hFE/453_R_79_M/Steps/Step07.inp                                                                                                                                                                                           

  *INCLUDE, input=/home/ms20s284/FRACTIB/04_Results/03_hFE/453_R_79_M/Steps/Step08.inp

  *** INPUT DATA IS READ FROM FILE /home/ms20s284/FRACTIB/04_Results/03_hFE/453_R_79_M/Steps/Step08.inp                                                                                                                                                                                           

  *INCLUDE, input=/home/ms20s284/FRACTIB/04_Results/03_hFE/453_R_79_M/Steps/Step09.inp

  *** INPUT DATA IS READ FROM FILE /home/ms20s284/FRACTIB/04_Results/03_hFE/453_R_79_M/Steps/Step09.inp                                                                                                                                                                                           

  *INCLUDE, input=/home/ms20s284/FRACTIB/04_Results/03_hFE/453_R_79_M/Steps/Step10.inp

  *** INPUT DATA IS READ FROM FILE /home/ms20s284/FRACTIB/04_Results/03_hFE/453_R_79_M/Steps/Step10.inp                                                                                                                                                                                           

  *INCLUDE, input=/home/ms20s284/FRACTIB/04_Results/03_hFE/453_R_79_M/Steps/Step11.inp

  *** INPUT DATA IS READ FROM FILE /home/ms20s284/FRACTIB/04_Results/03_hFE/453_R_79_M/Steps/Step11.inp                                                                                                                                                                                           

  *INCLUDE, input=/home/ms20s284/FRACTIB/04_Results/03_hFE/453_R_79_M/Steps/Step12.inp

  *** INPUT DATA IS READ FROM FILE /home/ms20s284/FRACTIB/04_Results/03_hFE/453_R_79_M/Steps/Step12.inp                                                                                                                                                                                           

  *INCLUDE, input=/home/ms20s284/FRACTIB/04_Results/03_hFE/453_R_79_M/Steps/Step13.inp

  *** INPUT DATA IS READ FROM FILE /home/ms20s284/FRACTIB/04_Results/03_hFE/453_R_79_M/Steps/Step13.inp                                                                                                                                                                                           

  *INCLUDE, input=/home/ms20s284/FRACTIB/04_Results/03_hFE/453_R_79_M/Steps/Step14.inp

  *** INPUT DATA IS READ FROM FILE /home/ms20s284/FRACTIB/04_Results/03_hFE/453_R_79_M/Steps/Step14.inp                                                                                                                                                                                           

  *INCLUDE, input=/home/ms20s284/FRACTIB/04_Results/03_hFE/453_R_79_M/Steps/Step15.inp

  *** INPUT DATA IS READ FROM FILE /home/ms20s284/FRACTIB/04_Results/03_hFE/453_R_79_M/Steps/Step15.inp                                                                                                                                                                                           

  *INCLUDE, input=/home/ms20s284/FRACTIB/04_Results/03_hFE/453_R_79_M/Steps/Step16.inp

  *** INPUT DATA IS READ FROM FILE /home/ms20s284/FRACTIB/04_Results/03_hFE/453_R_79_M/Steps/Step16.inp                                                                                                                                                                                           

  *INCLUDE, input=/home/ms20s284/FRACTIB/04_Results/03_hFE/453_R_79_M/Steps/Step17.inp

  *** INPUT DATA IS READ FROM FILE /home/ms20s284/FRACTIB/04_Results/03_hFE/453_R_79_M/Steps/Step17.inp                                                                                                                                                                                           

  *INCLUDE, input=/home/ms20s284/FRACTIB/04_Results/03_hFE/453_R_79_M/Steps/Step18.inp

  *** INPUT DATA IS READ FROM FILE /home/ms20s284/FRACTIB/04_Results/03_hFE/453_R_79_M/Steps/Step18.inp                                                                                                                                                                                           

  *INCLUDE, input=/home/ms20s284/FRACTIB/04_Results/03_hFE/453_R_79_M/Steps/Step19.inp

  *** INPUT DATA IS READ FROM FILE /home/ms20s284/FRACTIB/04_Results/03_hFE/453_R_79_M/Steps/Step19.inp                                                                                                                                                                                           

  *INCLUDE, input=/home/ms20s284/FRACTIB/04_Results/03_hFE/453_R_79_M/Steps/Step20.inp

  *** INPUT DATA IS READ FROM FILE /home/ms20s284/FRACTIB/04_Results/03_hFE/453_R_79_M/Steps/Step20.inp                                                                                                                                                                                           

  *INCLUDE, input=/home/ms20s284/FRACTIB/04_Results/03_hFE/453_R_79_M/Steps/Step21.inp

  *** INPUT DATA IS READ FROM FILE /home/ms20s284/FRACTIB/04_Results/03_hFE/453_R_79_M/Steps/Step21.inp                                                                                                                                                                                           

  *INCLUDE, input=/home/ms20s284/FRACTIB/04_Results/03_hFE/453_R_79_M/Steps/Step22.inp

  *** INPUT DATA IS READ FROM FILE /home/ms20s284/FRACTIB/04_Results/03_hFE/453_R_79_M/Steps/Step22.inp                                                                                                                                                                                           

  *INCLUDE, input=/home/ms20s284/FRACTIB/04_Results/03_hFE/453_R_79_M/Steps/Step23.inp

  *** INPUT DATA IS READ FROM FILE /home/ms20s284/FRACTIB/04_Results/03_hFE/453_R_79_M/Steps/Step23.inp                                                                                                                                                                                           

  *INCLUDE, input=/home/ms20s284/FRACTIB/04_Results/03_hFE/453_R_79_M/Steps/Step24.inp

  *** INPUT DATA IS READ FROM FILE /home/ms20s284/FRACTIB/04_Results/03_hFE/453_R_79_M/Steps/Step24.inp                                                                                                                                                                                           

  *INCLUDE, input=/home/ms20s284/FRACTIB/04_Results/03_hFE/453_R_79_M/Steps/Step25.inp

  *** INPUT DATA IS READ FROM FILE /home/ms20s284/FRACTIB/04_Results/03_hFE/453_R_79_M/Steps/Step25.inp                                                                                                                                                                                           

  *INCLUDE, input=/home/ms20s284/FRACTIB/04_Results/03_hFE/453_R_79_M/Steps/Step26.inp

  *** INPUT DATA IS READ FROM FILE /home/ms20s284/FRACTIB/04_Results/03_hFE/453_R_79_M/Steps/Step26.inp                                                                                                                                                                                           

  *INCLUDE, input=/home/ms20s284/FRACTIB/04_Results/03_hFE/453_R_79_M/Steps/Step27.inp

  *** INPUT DATA IS READ FROM FILE /home/ms20s284/FRACTIB/04_Results/03_hFE/453_R_79_M/Steps/Step27.inp                                                                                                                                                                                           

  *INCLUDE, input=/home/ms20s284/FRACTIB/04_Results/03_hFE/453_R_79_M/Steps/Step28.inp

  *** INPUT DATA IS READ FROM FILE /home/ms20s284/FRACTIB/04_Results/03_hFE/453_R_79_M/Steps/Step28.inp                                                                                                                                                                                           

  *INCLUDE, input=/home/ms20s284/FRACTIB/04_Results/03_hFE/453_R_79_M/Steps/Step29.inp

  *** INPUT DATA IS READ FROM FILE /home/ms20s284/FRACTIB/04_Results/03_hFE/453_R_79_M/Steps/Step29.inp                                                                                                                                                                                           

  *INCLUDE, input=/home/ms20s284/FRACTIB/04_Results/03_hFE/453_R_79_M/Steps/Step30.inp

  *** INPUT DATA IS READ FROM FILE /home/ms20s284/FRACTIB/04_Results/03_hFE/453_R_79_M/Steps/Step30.inp                                                                                                                                                                                           

  *INCLUDE, input=/home/ms20s284/FRACTIB/04_Results/03_hFE/453_R_79_M/Steps/Step31.inp

  *** INPUT DATA IS READ FROM FILE /home/ms20s284/FRACTIB/04_Results/03_hFE/453_R_79_M/Steps/Step31.inp                                                                                                                                                                                           

  *INCLUDE, input=/home/ms20s284/FRACTIB/04_Results/03_hFE/453_R_79_M/Steps/Step32.inp

  *** INPUT DATA IS READ FROM FILE /home/ms20s284/FRACTIB/04_Results/03_hFE/453_R_79_M/Steps/Step32.inp                                                                                                                                                                                           

  *INCLUDE, input=/home/ms20s284/FRACTIB/04_Results/03_hFE/453_R_79_M/Steps/Step33.inp

  *** INPUT DATA IS READ FROM FILE /home/ms20s284/FRACTIB/04_Results/03_hFE/453_R_79_M/Steps/Step33.inp                                                                                                                                                                                           

  *INCLUDE, input=/home/ms20s284/FRACTIB/04_Results/03_hFE/453_R_79_M/Steps/Step34.inp

  *** INPUT DATA IS READ FROM FILE /home/ms20s284/FRACTIB/04_Results/03_hFE/453_R_79_M/Steps/Step34.inp                                                                                                                                                                                           

  *INCLUDE, input=/home/ms20s284/FRACTIB/04_Results/03_hFE/453_R_79_M/Steps/Step35.inp

  *** INPUT DATA IS READ FROM FILE /home/ms20s284/FRACTIB/04_Results/03_hFE/453_R_79_M/Steps/Step35.inp                                                                                                                                                                                           

  *INCLUDE, input=/home/ms20s284/FRACTIB/04_Results/03_hFE/453_R_79_M/Steps/Step36.inp

  *** INPUT DATA IS READ FROM FILE /home/ms20s284/FRACTIB/04_Results/03_hFE/453_R_79_M/Steps/Step36.inp                                                                                                                                                                                           

  *INCLUDE, input=/home/ms20s284/FRACTIB/04_Results/03_hFE/453_R_79_M/Steps/Step37.inp

  *** INPUT DATA IS READ FROM FILE /home/ms20s284/FRACTIB/04_Results/03_hFE/453_R_79_M/Steps/Step37.inp                                                                                                                                                                                           

  *INCLUDE, input=/home/ms20s284/FRACTIB/04_Results/03_hFE/453_R_79_M/Steps/Step38.inp

  *** INPUT DATA IS READ FROM FILE /home/ms20s284/FRACTIB/04_Results/03_hFE/453_R_79_M/Steps/Step38.inp                                                                                                                                                                                           

  *INCLUDE, input=/home/ms20s284/FRACTIB/04_Results/03_hFE/453_R_79_M/Steps/Step39.inp

  *** INPUT DATA IS READ FROM FILE /home/ms20s284/FRACTIB/04_Results/03_hFE/453_R_79_M/Steps/Step39.inp                                                                                                                                                                                           

  *INCLUDE, input=/home/ms20s284/FRACTIB/04_Results/03_hFE/453_R_79_M/Steps/Step40.inp

  *** INPUT DATA IS READ FROM FILE /home/ms20s284/FRACTIB/04_Results/03_hFE/453_R_79_M/Steps/Step40.inp                                                                                                                                                                                           

  *INCLUDE, input=/home/ms20s284/FRACTIB/04_Results/03_hFE/453_R_79_M/Steps/Step41.inp

  *** INPUT DATA IS READ FROM FILE /home/ms20s284/FRACTIB/04_Results/03_hFE/453_R_79_M/Steps/Step41.inp                                                                                                                                                                                           

  *INCLUDE, input=/home/ms20s284/FRACTIB/04_Results/03_hFE/453_R_79_M/Steps/Step42.inp

  *** INPUT DATA IS READ FROM FILE /home/ms20s284/FRACTIB/04_Results/03_hFE/453_R_79_M/Steps/Step42.inp                                                                                                                                                                                           

  *INCLUDE, input=/home/ms20s284/FRACTIB/04_Results/03_hFE/453_R_79_M/Steps/Step43.inp

  *** INPUT DATA IS READ FROM FILE /home/ms20s284/FRACTIB/04_Results/03_hFE/453_R_79_M/Steps/Step43.inp                                                                                                                                                                                           

  *INCLUDE, input=/home/ms20s284/FRACTIB/04_Results/03_hFE/453_R_79_M/Steps/Step44.inp

  *** INPUT DATA IS READ FROM FILE /home/ms20s284/FRACTIB/04_Results/03_hFE/453_R_79_M/Steps/Step44.inp                                                                                                                                                                                           

  *INCLUDE, input=/home/ms20s284/FRACTIB/04_Results/03_hFE/453_R_79_M/Steps/Step45.inp

  *** INPUT DATA IS READ FROM FILE /home/ms20s284/FRACTIB/04_Results/03_hFE/453_R_79_M/Steps/Step45.inp                                                                                                                                                                                           

  *INCLUDE, input=/home/ms20s284/FRACTIB/04_Results/03_hFE/453_R_79_M/Steps/Step46.inp

  *** INPUT DATA IS READ FROM FILE /home/ms20s284/FRACTIB/04_Results/03_hFE/453_R_79_M/Steps/Step46.inp                                                                                                                                                                                           

  *INCLUDE, input=/home/ms20s284/FRACTIB/04_Results/03_hFE/453_R_79_M/Steps/Step47.inp

  *** INPUT DATA IS READ FROM FILE /home/ms20s284/FRACTIB/04_Results/03_hFE/453_R_79_M/Steps/Step47.inp                                                                                                                                                                                           

  *INCLUDE, input=/home/ms20s284/FRACTIB/04_Results/03_hFE/453_R_79_M/Steps/Step48.inp

  *** INPUT DATA IS READ FROM FILE /home/ms20s284/FRACTIB/04_Results/03_hFE/453_R_79_M/Steps/Step48.inp                                                                                                                                                                                           

  *INCLUDE, input=/home/ms20s284/FRACTIB/04_Results/03_hFE/453_R_79_M/Steps/Step49.inp

  *** INPUT DATA IS READ FROM FILE /home/ms20s284/FRACTIB/04_Results/03_hFE/453_R_79_M/Steps/Step49.inp                                                                                                                                                                                           

  *INCLUDE, input=/home/ms20s284/FRACTIB/04_Results/03_hFE/453_R_79_M/Steps/Step50.inp

  *** INPUT DATA IS READ FROM FILE /home/ms20s284/FRACTIB/04_Results/03_hFE/453_R_79_M/Steps/Step50.inp                                                                                                                                                                                           

  *MATERIAL, NAME=Mat335
  *USER MATERIAL, CONSTANTS=7, UNSYMM, TYPE=MECHANICAL
  *DEPVAR
  *MATERIAL, NAME=Mat336
  *USER MATERIAL, CONSTANTS=7, UNSYMM, TYPE=MECHANICAL
  *DEPVAR
  *MATERIAL, NAME=Mat337
  *USER MATERIAL, CONSTANTS=7, UNSYMM, TYPE=MECHANICAL
  *DEPVAR
  *MATERIAL, NAME=Mat338
  *USER MATERIAL, CONSTANTS=7, UNSYMM, TYPE=MECHANICAL
  *DEPVAR
  *MATERIAL, NAME=Mat339
  *USER MATERIAL, CONSTANTS=7, UNSYMM, TYPE=MECHANICAL
  *DEPVAR
  *MATERIAL, NAME=Mat377
  *USER MATERIAL, CONSTANTS=7, UNSYMM, TYPE=MECHANICAL
  *DEPVAR
  *MATERIAL, NAME=Mat378
  *USER MATERIAL, CONSTANTS=7, UNSYMM, TYPE=MECHANICAL
  *DEPVAR
  *MATERIAL, NAME=Mat379
  *USER MATERIAL, CONSTANTS=7, UNSYMM, TYPE=MECHANICAL
  *DEPVAR
  *MATERIAL, NAME=Mat380
  *USER MATERIAL, CONSTANTS=7, UNSYMM, TYPE=MECHANICAL
  *DEPVAR
  *MATERIAL, NAME=Mat381
  *USER MATERIAL, CONSTANTS=7, UNSYMM, TYPE=MECHANICAL
  *DEPVAR
  *MATERIAL, NAME=Mat382
  *USER MATERIAL, CONSTANTS=7, UNSYMM, TYPE=MECHANICAL
  *DEPVAR
  *MATERIAL, NAME=Mat383
  *USER MATERIAL, CONSTANTS=7, UNSYMM, TYPE=MECHANICAL
  *DEPVAR
  *MATERIAL, NAME=Mat384
  *USER MATERIAL, CONSTANTS=7, UNSYMM, TYPE=MECHANICAL
  *DEPVAR
  *MATERIAL, NAME=Mat385
  *USER MATERIAL, CONSTANTS=7, UNSYMM, TYPE=MECHANICAL
  *DEPVAR
  *MATERIAL, NAME=Mat386
  *USER MATERIAL, CONSTANTS=7, UNSYMM, TYPE=MECHANICAL
  *DEPVAR
  *MATERIAL, NAME=Mat387
  *USER MATERIAL, CONSTANTS=7, UNSYMM, TYPE=MECHANICAL
  *DEPVAR
  *MATERIAL, NAME=Mat388
  *USER MATERIAL, CONSTANTS=7, UNSYMM, TYPE=MECHANICAL
  *DEPVAR
  *MATERIAL, NAME=Mat420
  *USER MATERIAL, CONSTANTS=7, UNSYMM, TYPE=MECHANICAL
  *DEPVAR
  *MATERIAL, NAME=Mat421
  *USER MATERIAL, CONSTANTS=7, UNSYMM, TYPE=MECHANICAL
  *DEPVAR
  *MATERIAL, NAME=Mat422
  *USER MATERIAL, CONSTANTS=7, UNSYMM, TYPE=MECHANICAL
  *DEPVAR
  *MATERIAL, NAME=Mat423
  *USER MATERIAL, CONSTANTS=7, UNSYMM, TYPE=MECHANICAL
  *DEPVAR
  *MATERIAL, NAME=Mat424
  *USER MATERIAL, CONSTANTS=7, UNSYMM, TYPE=MECHANICAL
  *DEPVAR
  *MATERIAL, NAME=Mat425
  *USER MATERIAL, CONSTANTS=7, UNSYMM, TYPE=MECHANICAL
  *DEPVAR
  *MATERIAL, NAME=Mat426
  *USER MATERIAL, CONSTANTS=7, UNSYMM, TYPE=MECHANICAL
  *DEPVAR
  *MATERIAL, NAME=Mat427
  *USER MATERIAL, CONSTANTS=7, UNSYMM, TYPE=MECHANICAL
  *DEPVAR
  *MATERIAL, NAME=Mat428
  *USER MATERIAL, CONSTANTS=7, UNSYMM, TYPE=MECHANICAL
  *DEPVAR
  *MATERIAL, NAME=Mat429
  *USER MATERIAL, CONSTANTS=7, UNSYMM, TYPE=MECHANICAL
  *DEPVAR
  *MATERIAL, NAME=Mat430
  *USER MATERIAL, CONSTANTS=7, UNSYMM, TYPE=MECHANICAL
  *DEPVAR
  *MATERIAL, NAME=Mat431
  *USER MATERIAL, CONSTANTS=7, UNSYMM, TYPE=MECHANICAL
  *DEPVAR
  *MATERIAL, NAME=Mat432
  *USER MATERIAL, CONSTANTS=7, UNSYMM, TYPE=MECHANICAL
  *DEPVAR
  *MATERIAL, NAME=Mat433
  *USER MATERIAL, CONSTANTS=7, UNSYMM, TYPE=MECHANICAL
  *DEPVAR
  *MATERIAL, NAME=Mat434
  *USER MATERIAL, CONSTANTS=7, UNSYMM, TYPE=MECHANICAL
  *DEPVAR
  *MATERIAL, NAME=Mat435
  *USER MATERIAL, CONSTANTS=7, UNSYMM, TYPE=MECHANICAL
  *DEPVAR
  *MATERIAL, NAME=Mat463
  *USER MATERIAL, CONSTANTS=7, UNSYMM, TYPE=MECHANICAL
  *DEPVAR
  *MATERIAL, NAME=Mat464
  *USER MATERIAL, CONSTANTS=7, UNSYMM, TYPE=MECHANICAL
  *DEPVAR
  *MATERIAL, NAME=Mat465
  *USER MATERIAL, CONSTANTS=7, UNSYMM, TYPE=MECHANICAL
  *DEPVAR
  *MATERIAL, NAME=Mat466
  *USER MATERIAL, CONSTANTS=7, UNSYMM, TYPE=MECHANICAL
  *DEPVAR
  *MATERIAL, NAME=Mat467
  *USER MATERIAL, CONSTANTS=7, UNSYMM, TYPE=MECHANICAL
  *DEPVAR
  *MATERIAL, NAME=Mat468
  *USER MATERIAL, CONSTANTS=7, UNSYMM, TYPE=MECHANICAL
  *DEPVAR
  *MATERIAL, NAME=Mat469
  *USER MATERIAL, CONSTANTS=7, UNSYMM, TYPE=MECHANICAL
  *DEPVAR
  *MATERIAL, NAME=Mat470
  *USER MATERIAL, CONSTANTS=7, UNSYMM, TYPE=MECHANICAL
  *DEPVAR
  *MATERIAL, NAME=Mat471
  *USER MATERIAL, CONSTANTS=7, UNSYMM, TYPE=MECHANICAL
  *DEPVAR
  *MATERIAL, NAME=Mat472
  *USER MATERIAL, CONSTANTS=7, UNSYMM, TYPE=MECHANICAL
  *DEPVAR
  *MATERIAL, NAME=Mat473
  *USER MATERIAL, CONSTANTS=7, UNSYMM, TYPE=MECHANICAL
  *DEPVAR
  *MATERIAL, NAME=Mat474
  *USER MATERIAL, CONSTANTS=7, UNSYMM, TYPE=MECHANICAL
  *DEPVAR
  *MATERIAL, NAME=Mat475
  *USER MATERIAL, CONSTANTS=7, UNSYMM, TYPE=MECHANICAL
  *DEPVAR
  *MATERIAL, NAME=Mat476
  *USER MATERIAL, CONSTANTS=7, UNSYMM, TYPE=MECHANICAL
  *DEPVAR
  *MATERIAL, NAME=Mat477
  *USER MATERIAL, CONSTANTS=7, UNSYMM, TYPE=MECHANICAL
  *DEPVAR
  *MATERIAL, NAME=Mat478
  *USER MATERIAL, CONSTANTS=7, UNSYMM, TYPE=MECHANICAL
  *DEPVAR
  *MATERIAL, NAME=Mat479
  *USER MATERIAL, CONSTANTS=7, UNSYMM, TYPE=MECHANICAL
  *DEPVAR
  *MATERIAL, NAME=Mat480
  *USER MATERIAL, CONSTANTS=7, UNSYMM, TYPE=MECHANICAL
  *DEPVAR
  *MATERIAL, NAME=Mat481
  *USER MATERIAL, CONSTANTS=7, UNSYMM, TYPE=MECHANICAL
  *DEPVAR
  *MATERIAL, NAME=Mat506
[...]


                                INCREMENT    20 SUMMARY


 TIME INCREMENT COMPLETED  5.000E-02,  FRACTION OF STEP COMPLETED   1.00    
 STEP TIME COMPLETED        1.00    ,  TOTAL TIME COMPLETED         36.0    
  
  
  
  
                                       N O D E   O U T P U T
  
  
  
  
   THE FOLLOWING TABLE IS PRINTED FOR NODES BELONGING TO NODE SET REF_NODE
  
       NODE FOOT-  U1             U2             U3             UR1            UR2            UR3          
            NOTE
  
   10000000      1.7000000E-02 -1.7000000E-02  2.8000000E-02  4.6010821E-02  1.5995427E-02 -6.9903770E-03
  
  
  
   THE FOLLOWING TABLE IS PRINTED FOR NODES BELONGING TO NODE SET REF_NODE
  
       NODE FOOT-  RF1            RF2            RF3            RM1            RM2            RM3          
            NOTE
  
   10000000      1.9653861E+03 -3.2922820E+03  1.6562358E+05  8.2553503E+05  2.3324052E+06 -4.6735838E+03
  
  
  
   THE FOLLOWING TABLE IS PRINTED FOR NODES BELONGING TO NODE SET REF_NODE
  
       NODE FOOT-  CF1            CF2            CF3            CM1            CM2            CM3          
            NOTE
  
  ALL VALUES IN THIS TABLE ARE ZERO
1

   Abaqus 2021                                  Date 22-Feb-2023   Time 19:00:57
   For use by UNIVERSITAET BERN under license from Dassault Systemes or its subsidiary.

                                                                                               STEP   37  INCREMENT    1
                                                                                          TIME COMPLETED IN THIS STEP   0.00    


                        S T E P      37     S T A T I C   A N A L Y S I S


                                                                                          

     AUTOMATIC TIME CONTROL WITH -
          A SUGGESTED INITIAL TIME INCREMENT OF                5.000E-02
          AND A TOTAL TIME PERIOD OF                            1.00    
          THE MINIMUM TIME INCREMENT ALLOWED IS                5.000E-05
          THE MAXIMUM TIME INCREMENT ALLOWED IS                5.000E-02

     LINEAR EQUATION SOLVER TYPE         DIRECT SPARSE

          LARGE DISPLACEMENT THEORY WILL BE USED

          UNSYMMETRIC MATRIX STORAGE AND SOLUTION WILL BE USED
  
                   M E M O R Y   E S T I M A T E
  
 PROCESS      FLOATING PT       MINIMUM MEMORY        MEMORY TO
              OPERATIONS           REQUIRED          MINIMIZE I/O
             PER ITERATION           (MB)               (MB)
  
     1          6.72E+06               17                 26
  
 NOTE:
      (1) SINCE ABAQUS DOES NOT PRE-ALLOCATE MEMORY AND ONLY ALLOCATES MEMORY AS NEEDED DURING THE ANALYSIS,
          THE MEMORY REQUIREMENT PRINTED HERE CAN ONLY BE VIEWED AS A GENERAL GUIDELINE BASED ON THE BEST
          KNOWLEDGE AVAILABLE AT THE BEGINNING OF A STEP BEFORE THE SOLUTION PROCESS HAS BEGUN.
      (2) THE ESTIMATE IS NORMALLY UPDATED AT THE BEGINNING OF EVERY STEP. IT IS THE MAXIMUM VALUE OF THE
          ESTIMATE FROM THE CURRENT STEP TO THE LAST STEP OF THE ANALYSIS, WITH UNSYMMETRIC SOLUTION TAKEN
          INTO ACCOUNT IF APPLICABLE. 
      (3) SINCE THE ESTIMATE IS BASED ON THE ACTIVE DEGREES OF FREEDOM IN THE FIRST ITERATION OF THE 
          CURRENT STEP, THE MEMORY ESTIMATE MIGHT BE SIGNIFICANTLY DIFFERENT THAN ACTUAL USAGE FOR 
          PROBLEMS WITH SUBSTANTIAL CHANGES IN ACTIVE DEGREES OF FREEDOM BETWEEN STEPS (OR EVEN WITHIN
          THE SAME STEP). EXAMPLES ARE: PROBLEMS WITH SIGNIFICANT CONTACT CHANGES, PROBLEMS WITH MODEL
          CHANGE, PROBLEMS WITH BOTH STATIC STEP AND STEADY STATE DYNAMIC PROCEDURES WHERE ACOUSTIC 
          ELEMENTS WILL ONLY BE ACTIVATED IN THE STEADY STATE DYNAMIC STEPS.
      (4) FOR MULTI-PROCESS EXECUTION, THE ESTIMATED VALUE OF FLOATING POINT OPERATIONS FOR EACH PROCESS
          IS BASED ON AN INITIAL SCHEDULING OF OPERATIONS AND MIGHT NOT REFLECT THE ACTUAL FLOATING 
          POINT OPERATIONS COMPLETED ON EACH PROCESS. OPERATIONS ARE DYNAMICALLY BALANCED DURING EXECUTION, 
          SO THE ACTUAL BALANCE OF OPERATIONS BETWEEN PROCESSES IS EXPECTED TO BE BETTER THAN THE ESTIMATE
          PRINTED HERE.
      (5) THE UPPER LIMIT OF MEMORY THAT CAN BE ALLOCATED BY ABAQUS WILL IN GENERAL DEPEND ON THE VALUE OF
          THE "MEMORY" PARAMETER AND THE AMOUNT OF PHYSICAL MEMORY AVAILABLE ON THE MACHINE. PLEASE SEE
          THE "ABAQUS ANALYSIS USER'S MANUAL" FOR MORE DETAILS. THE ACTUAL USAGE OF MEMORY AND OF DISK
          SPACE FOR SCRATCH DATA WILL DEPEND ON THIS UPPER LIMIT AS WELL AS THE MEMORY REQUIRED TO MINIMIZE
          I/O. IF THE MEMORY UPPER LIMIT IS GREATER THAN THE MEMORY REQUIRED TO MINIMIZE I/O, THEN THE ACTUAL
          MEMORY USAGE WILL BE CLOSE TO THE ESTIMATED "MEMORY TO MINIMIZE I/O" VALUE, AND THE SCRATCH DISK
          USAGE WILL BE CLOSE-TO-ZERO; OTHERWISE, THE ACTUAL MEMORY USED WILL BE CLOSE TO THE PREVIOUSLY
          MENTIONED MEMORY LIMIT, AND THE SCRATCH DISK USAGE WILL BE ROUGHLY PROPORTIONAL TO THE DIFFERENCE
          BETWEEN THE ESTIMATED "MEMORY TO MINIMIZE I/O" AND THE MEMORY UPPER LIMIT. HOWEVER ACCURATE
          ESTIMATE OF THE SCRATCH DISK SPACE IS NOT POSSIBLE.
      (6) USING "*RESTART, WRITE" CAN GENERATE A LARGE AMOUNT OF DATA WRITTEN IN THE WORK DIRECTORY.


                                INCREMENT     1 SUMMARY


 TIME INCREMENT COMPLETED  5.000E-02,  FRACTION OF STEP COMPLETED  5.000E-02
 STEP TIME COMPLETED       5.000E-02,  TOTAL TIME COMPLETED         36.1    
  
  
  
  
                                       N O D E   O U T P U T
  
  
  
  
   THE FOLLOWING TABLE IS PRINTED FOR NODES BELONGING TO NODE SET REF_NODE
  
       NODE FOOT-  U1             U2             U3             UR1            UR2            UR3          
            NOTE
  
   10000000      1.8450000E-02 -2.0900000E-02  3.1700000E-02  5.6860342E-02  1.9103533E-02 -8.2749657E-03
  
  
  
   THE FOLLOWING TABLE IS PRINTED FOR NODES BELONGING TO NODE SET REF_NODE
  
       NODE FOOT-  RF1            RF2            RF3            RM1            RM2            RM3          
            NOTE
  
   10000000      2.0905191E+03 -5.4848301E+03  2.1178108E+05  1.0823990E+06  2.9484454E+06  2.1210740E+04
  
  
  
   THE FOLLOWING TABLE IS PRINTED FOR NODES BELONGING TO NODE SET REF_NODE
  
       NODE FOOT-  CF1            CF2            CF3            CM1            CM2            CM3          
            NOTE
  
  ALL VALUES IN THIS TABLE ARE ZERO


                                INCREMENT     2 SUMMARY


 TIME INCREMENT COMPLETED  5.000E-02,  FRACTION OF STEP COMPLETED  0.100    
 STEP TIME COMPLETED       0.100    ,  TOTAL TIME COMPLETED         36.1    
  
  
  
  
                                       N O D E   O U T P U T
  
  
  
  
   THE FOLLOWING TABLE IS PRINTED FOR NODES BELONGING TO NODE SET REF_NODE
  
       NODE FOOT-  U1             U2             U3             UR1            UR2            UR3          
            NOTE
  
   10000000      1.9900000E-02 -2.4800000E-02  3.5400000E-02  6.7709883E-02  2.2211584E-02 -9.5595236E-03
  
  
  
   THE FOLLOWING TABLE IS PRINTED FOR NODES BELONGING TO NODE SET REF_NODE
  
       NODE FOOT-  RF1            RF2            RF3            RM1            RM2            RM3          
            NOTE
  
   10000000      1.9606917E+03 -8.8077302E+03  2.6967942E+05  1.4203587E+06  3.7193931E+06  6.4349506E+04
  
  
  
   THE FOLLOWING TABLE IS PRINTED FOR NODES BELONGING TO NODE SET REF_NODE
  
       NODE FOOT-  CF1            CF2            CF3            CM1            CM2            CM3          
            NOTE
  
  ALL VALUES IN THIS TABLE ARE ZERO


                                INCREMENT     3 SUMMARY


 TIME INCREMENT COMPLETED  5.000E-02,  FRACTION OF STEP COMPLETED  0.150    
 STEP TIME COMPLETED       0.150    ,  TOTAL TIME COMPLETED         36.2    
  
  
  
  
                                       N O D E   O U T P U T
  
  
  
  
   THE FOLLOWING TABLE IS PRINTED FOR NODES BELONGING TO NODE SET REF_NODE
  
       NODE FOOT-  U1             U2             U3             UR1            UR2            UR3          
            NOTE
  
   10000000      2.1350000E-02 -2.8700000E-02  3.9100000E-02  7.8559443E-02  2.5319581E-02 -1.0844051E-02
  
  
  
   THE FOLLOWING TABLE IS PRINTED FOR NODES BELONGING TO NODE SET REF_NODE
  
       NODE FOOT-  RF1            RF2            RF3            RM1            RM2            RM3          
            NOTE
  
   10000000      1.3335653E+03 -1.4499537E+04  3.6133031E+05  2.0162895E+06  4.9274342E+06  1.4327729E+05
  
  
  
   THE FOLLOWING TABLE IS PRINTED FOR NODES BELONGING TO NODE SET REF_NODE
  
       NODE FOOT-  CF1            CF2            CF3            CM1            CM2            CM3          
            NOTE
  
  ALL VALUES IN THIS TABLE ARE ZERO


                                INCREMENT     4 SUMMARY


 TIME INCREMENT COMPLETED  1.250E-02,  FRACTION OF STEP COMPLETED  0.163    
 STEP TIME COMPLETED       0.163    ,  TOTAL TIME COMPLETED         36.2    
  
  
  
  
                                       N O D E   O U T P U T
  
  
  
  
   THE FOLLOWING TABLE IS PRINTED FOR NODES BELONGING TO NODE SET REF_NODE
  
       NODE FOOT-  U1             U2             U3             UR1            UR2            UR3          
            NOTE
  
   10000000      2.1712500E-02 -2.9675000E-02  4.0025000E-02  8.1271836E-02  2.6096571E-02 -1.1165178E-02
  
  
  
   THE FOLLOWING TABLE IS PRINTED FOR NODES BELONGING TO NODE SET REF_NODE
  
       NODE FOOT-  RF1            RF2            RF3            RM1            RM2            RM3          
            NOTE
  
   10000000      9.8845357E+02 -1.6938341E+04  4.0115773E+05  2.3011964E+06  5.4466582E+06  1.7792902E+05
  
  
  
   THE FOLLOWING TABLE IS PRINTED FOR NODES BELONGING TO NODE SET REF_NODE
  
       NODE FOOT-  CF1            CF2            CF3            CM1            CM2            CM3          
            NOTE
  
  ALL VALUES IN THIS TABLE ARE ZERO


                                INCREMENT     5 SUMMARY


 TIME INCREMENT COMPLETED  1.875E-02,  FRACTION OF STEP COMPLETED  0.181    
 STEP TIME COMPLETED       0.181    ,  TOTAL TIME COMPLETED         36.2    
  
  
  
  
                                       N O D E   O U T P U T
  
  
  
  
   THE FOLLOWING TABLE IS PRINTED FOR NODES BELONGING TO NODE SET REF_NODE
  
       NODE FOOT-  U1             U2             U3             UR1            UR2            UR3          
            NOTE
  
   10000000      2.2256250E-02 -3.1137500E-02  4.1412500E-02  8.5340427E-02  2.7262050E-02 -1.1646864E-02
  
  
  
   THE FOLLOWING TABLE IS PRINTED FOR NODES BELONGING TO NODE SET REF_NODE
  
       NODE FOOT-  RF1            RF2            RF3            RM1            RM2            RM3          
            NOTE
  
   10000000      3.2837998E+02 -2.2749181E+04  5.0194252E+05  3.0694599E+06  6.7534238E+06  2.5915006E+05
  
  
  
   THE FOLLOWING TABLE IS PRINTED FOR NODES BELONGING TO NODE SET REF_NODE
  
       NODE FOOT-  CF1            CF2            CF3            CM1            CM2            CM3          
            NOTE
  
  ALL VALUES IN THIS TABLE ARE ZERO


                                INCREMENT     6 SUMMARY


 TIME INCREMENT COMPLETED  7.031E-03,  FRACTION OF STEP COMPLETED  0.188    
 STEP TIME COMPLETED       0.188    ,  TOTAL TIME COMPLETED         36.2    
  
  
  
  
                                       N O D E   O U T P U T
  
  
  
  
   THE FOLLOWING TABLE IS PRINTED FOR NODES BELONGING TO NODE SET REF_NODE
  
       NODE FOOT-  U1             U2             U3             UR1            UR2            UR3          
            NOTE
  
   10000000      2.2460156E-02 -3.1685938E-02  4.1932812E-02  8.6866150E-02  2.7699103E-02 -1.1827496E-02
  
  
  
   THE FOLLOWING TABLE IS PRINTED FOR NODES BELONGING TO NODE SET REF_NODE
  
       NODE FOOT-  RF1            RF2            RF3            RM1            RM2            RM3          
            NOTE
  
   10000000     -8.3748534E+01 -2.6512722E+04  5.7034025E+05  3.6160620E+06  7.6401703E+06  3.1179193E+05
  
  
  
   THE FOLLOWING TABLE IS PRINTED FOR NODES BELONGING TO NODE SET REF_NODE
  
       NODE FOOT-  CF1            CF2            CF3            CM1            CM2            CM3          
            NOTE
  
  ALL VALUES IN THIS TABLE ARE ZERO


                                INCREMENT     7 SUMMARY


 TIME INCREMENT COMPLETED  2.637E-03,  FRACTION OF STEP COMPLETED  0.191    
 STEP TIME COMPLETED       0.191    ,  TOTAL TIME COMPLETED         36.2    
  
  
  
  
                                       N O D E   O U T P U T
  
  
  
  
   THE FOLLOWING TABLE IS PRINTED FOR NODES BELONGING TO NODE SET REF_NODE
  
       NODE FOOT-  U1             U2             U3             UR1            UR2            UR3          
            NOTE
  
   10000000      2.2536621E-02 -3.1891602E-02  4.2127930E-02  8.7438296E-02  2.7862998E-02 -1.1895232E-02
  
  
  
   THE FOLLOWING TABLE IS PRINTED FOR NODES BELONGING TO NODE SET REF_NODE
  
       NODE FOOT-  RF1            RF2            RF3            RM1            RM2            RM3          
            NOTE
  
   10000000     -3.3307668E+02 -2.8402535E+04  6.0524181E+05  3.9000164E+06  8.0937786E+06  3.3869916E+05
  
  
  
   THE FOLLOWING TABLE IS PRINTED FOR NODES BELONGING TO NODE SET REF_NODE
  
       NODE FOOT-  CF1            CF2            CF3            CM1            CM2            CM3          
            NOTE
  
  ALL VALUES IN THIS TABLE ARE ZERO


                                INCREMENT     8 SUMMARY


 TIME INCREMENT COMPLETED  3.955E-03,  FRACTION OF STEP COMPLETED  0.195    
 STEP TIME COMPLETED       0.195    ,  TOTAL TIME COMPLETED         36.2    
  
  
  
  
                                       N O D E   O U T P U T
  
  
  
  
   THE FOLLOWING TABLE IS PRINTED FOR NODES BELONGING TO NODE SET REF_NODE
  
       NODE FOOT-  U1             U2             U3             UR1            UR2            UR3          
            NOTE
  
   10000000      2.2651318E-02 -3.2200098E-02  4.2420605E-02  8.8296515E-02  2.8108839E-02 -1.1996837E-02
  
  
  
   THE FOLLOWING TABLE IS PRINTED FOR NODES BELONGING TO NODE SET REF_NODE
  
       NODE FOOT-  RF1            RF2            RF3            RM1            RM2            RM3          
            NOTE
  
   10000000     -1.4860064E+03 -3.2147696E+04  6.7403635E+05  4.4674890E+06  8.9912058E+06  3.9827460E+05
  
  
  
   THE FOLLOWING TABLE IS PRINTED FOR NODES BELONGING TO NODE SET REF_NODE
  
       NODE FOOT-  CF1            CF2            CF3            CM1            CM2            CM3          
            NOTE
  
  ALL VALUES IN THIS TABLE ARE ZERO


                                INCREMENT     9 SUMMARY


 TIME INCREMENT COMPLETED  3.708E-04,  FRACTION OF STEP COMPLETED  0.195    
 STEP TIME COMPLETED       0.195    ,  TOTAL TIME COMPLETED         36.2    
  
  
  
  
                                       N O D E   O U T P U T
  
  
  
  
   THE FOLLOWING TABLE IS PRINTED FOR NODES BELONGING TO NODE SET REF_NODE
  
       NODE FOOT-  U1             U2             U3             UR1            UR2            UR3          
            NOTE
  
   10000000      2.2662071E-02 -3.2229019E-02  4.2448044E-02  8.8376973E-02  2.8131887E-02 -1.2006363E-02
  
  
  
   THE FOLLOWING TABLE IS PRINTED FOR NODES BELONGING TO NODE SET REF_NODE
  
       NODE FOOT-  RF1            RF2            RF3            RM1            RM2            RM3          
            NOTE
  
   10000000     -2.0585478E+03 -3.2638570E+04  6.8232184E+05  4.5367631E+06  9.0996678E+06  4.0996500E+05
  
  
  
   THE FOLLOWING TABLE IS PRINTED FOR NODES BELONGING TO NODE SET REF_NODE
  
       NODE FOOT-  CF1            CF2            CF3            CM1            CM2            CM3          
            NOTE
  
  ALL VALUES IN THIS TABLE ARE ZERO


                                INCREMENT    10 SUMMARY


 TIME INCREMENT COMPLETED  5.562E-04,  FRACTION OF STEP COMPLETED  0.196    
 STEP TIME COMPLETED       0.196    ,  TOTAL TIME COMPLETED         36.2    
  
  
  
  
                                       N O D E   O U T P U T
  
  
  
  
   THE FOLLOWING TABLE IS PRINTED FOR NODES BELONGING TO NODE SET REF_NODE
  
       NODE FOOT-  U1             U2             U3             UR1            UR2            UR3          
            NOTE
  
   10000000      2.2678201E-02 -3.2272401E-02  4.2489201E-02  8.8497660E-02  2.8166458E-02 -1.2020651E-02
  
  
  
   THE FOLLOWING TABLE IS PRINTED FOR NODES BELONGING TO NODE SET REF_NODE
  
       NODE FOOT-  RF1            RF2            RF3            RM1            RM2            RM3          
            NOTE
  
   10000000     -7.8701529E+03 -3.4018498E+04  7.0016215E+05  4.6898494E+06  9.3332026E+06  4.8118065E+05
  
  
  
   THE FOLLOWING TABLE IS PRINTED FOR NODES BELONGING TO NODE SET REF_NODE
  
       NODE FOOT-  CF1            CF2            CF3            CM1            CM2            CM3          
            NOTE
  
  ALL VALUES IN THIS TABLE ARE ZERO


                                INCREMENT    11 SUMMARY


 TIME INCREMENT COMPLETED  5.214E-05,  FRACTION OF STEP COMPLETED  0.196    
 STEP TIME COMPLETED       0.196    ,  TOTAL TIME COMPLETED         36.2    
  
  
  
  
                                       N O D E   O U T P U T
  
  
  
  
   THE FOLLOWING TABLE IS PRINTED FOR NODES BELONGING TO NODE SET REF_NODE
  
       NODE FOOT-  U1             U2             U3             UR1            UR2            UR3          
            NOTE
  
   10000000      2.2679713E-02 -3.2276469E-02  4.2493060E-02  8.8508975E-02  2.8169699E-02 -1.2021990E-02
  
  
  
   THE FOLLOWING TABLE IS PRINTED FOR NODES BELONGING TO NODE SET REF_NODE
  
       NODE FOOT-  RF1            RF2            RF3            RM1            RM2            RM3          
            NOTE
  
   10000000     -1.2589087E+04 -3.4674067E+04  7.0539577E+05  4.7368234E+06  9.4009110E+06  5.3288601E+05
  
  
  
   THE FOLLOWING TABLE IS PRINTED FOR NODES BELONGING TO NODE SET REF_NODE
  
       NODE FOOT-  CF1            CF2            CF3            CM1            CM2            CM3          
            NOTE
  
  ALL VALUES IN THIS TABLE ARE ZERO


                                INCREMENT    12 SUMMARY


 TIME INCREMENT COMPLETED  1.000E-35,  FRACTION OF STEP COMPLETED  0.196    
 STEP TIME COMPLETED       0.196    ,  TOTAL TIME COMPLETED         36.2    
  
  
  
  
                                       N O D E   O U T P U T
  
  
  
  
   THE FOLLOWING TABLE IS PRINTED FOR NODES BELONGING TO NODE SET REF_NODE
  
       NODE FOOT-  U1             U2             U3             UR1            UR2            UR3          
            NOTE
  
   10000000      2.2679713E-02 -3.2276469E-02  4.2493060E-02  8.8508975E-02  2.8169699E-02 -1.2021990E-02
  
  
  
   THE FOLLOWING TABLE IS PRINTED FOR NODES BELONGING TO NODE SET REF_NODE
  
       NODE FOOT-  RF1            RF2            RF3            RM1            RM2            RM3          
            NOTE
  
   10000000     -3.4038571E+04 -3.7527593E+04  7.2300271E+05  4.8976760E+06  9.6253000E+06  7.6635367E+05
  
  
  
   THE FOLLOWING TABLE IS PRINTED FOR NODES BELONGING TO NODE SET REF_NODE
  
       NODE FOOT-  CF1            CF2            CF3            CM1            CM2            CM3          
            NOTE
  
  ALL VALUES IN THIS TABLE ARE ZERO



                              ANALYSIS COMPLETE
                              WITH      3 ERROR MESSAGES ON THE MSG FILE
                              AND     531 WARNING MESSAGES ON THE DAT FILE
                              AND       8 WARNING MESSAGES ON THE MSG FILE



     JOB TIME SUMMARY
       USER TIME (SEC)      =   1115.5    
       SYSTEM TIME (SEC)    =   344.60    
       TOTAL CPU TIME (SEC) =   1460.1    
       WALLCLOCK TIME (SEC) =        122
