 Abaqus/Standard 2021.HF4                  DATE 24-Feb-2023 TIME 15:42:00
 SUMMARY OF JOB INFORMATION:
 STEP  INC ATT SEVERE EQUIL TOTAL  TOTAL      STEP       INC OF       DOF    IF
               DISCON ITERS ITERS  TIME/    TIME/LPF    TIME/LPF    MONITOR RIKS
               ITERS               FREQ
   1     1   1     0     1     1  0.0500     0.0500     0.05000   
   1     2   1     0     1     1  0.100      0.100      0.05000   
   1     3   1     0     1     1  0.150      0.150      0.05000   
   1     4   1     0     1     1  0.200      0.200      0.05000   
   1     5   1     0     1     1  0.250      0.250      0.05000   
   1     6   1     0     1     1  0.300      0.300      0.05000   
   1     7   1     0     1     1  0.350      0.350      0.05000   
   1     8   1     0     1     1  0.400      0.400      0.05000   
   1     9   1     0     1     1  0.450      0.450      0.05000   
   1    10   1     0     1     1  0.500      0.500      0.05000   
   1    11   1     0     1     1  0.550      0.550      0.05000   
   1    12   1     0     1     1  0.600      0.600      0.05000   
   1    13   1     0     1     1  0.650      0.650      0.05000   
   1    14   1     0     1     1  0.700      0.700      0.05000   
   1    15   1     0     1     1  0.750      0.750      0.05000   
   1    16   1     0     1     1  0.800      0.800      0.05000   
   1    17   1     0     1     1  0.850      0.850      0.05000   
   1    18   1     0     1     1  0.900      0.900      0.05000   
   1    19   1     0     1     1  0.950      0.950      0.05000   
   1    20   1     0     1     1  1.00       1.00       0.05000   
   2     1   1     0     1     1  1.05       0.0500     0.05000   
   2     2   1     0     1     1  1.10       0.100      0.05000   
   2     3   1     0     1     1  1.15       0.150      0.05000   
   2     4   1     0     1     1  1.20       0.200      0.05000   
   2     5   1     0     1     1  1.25       0.250      0.05000   
   2     6   1     0     1     1  1.30       0.300      0.05000   
   2     7   1     0     1     1  1.35       0.350      0.05000   
   2     8   1     0     1     1  1.40       0.400      0.05000   
   2     9   1     0     1     1  1.45       0.450      0.05000   
   2    10   1     0     1     1  1.50       0.500      0.05000   
   2    11   1     0     1     1  1.55       0.550      0.05000   
   2    12   1     0     1     1  1.60       0.600      0.05000   
   2    13   1     0     1     1  1.65       0.650      0.05000   
   2    14   1     0     1     1  1.70       0.700      0.05000   
   2    15   1     0     1     1  1.75       0.750      0.05000   
   2    16   1     0     1     1  1.80       0.800      0.05000   
   2    17   1     0     1     1  1.85       0.850      0.05000   
   2    18   1     0     1     1  1.90       0.900      0.05000   
   2    19   1     0     1     1  1.95       0.950      0.05000   
   2    20   1     0     1     1  2.00       1.00       0.05000   
   3     1   1     0     1     1  2.05       0.0500     0.05000   
   3     2   1     0     1     1  2.10       0.100      0.05000   
   3     3   1     0     1     1  2.15       0.150      0.05000   
   3     4   1     0     1     1  2.20       0.200      0.05000   
   3     5   1     0     1     1  2.25       0.250      0.05000   
   3     6   1     0     1     1  2.30       0.300      0.05000   
   3     7   1     0     1     1  2.35       0.350      0.05000   
   3     8   1     0     1     1  2.40       0.400      0.05000   
   3     9   1     0     1     1  2.45       0.450      0.05000   
   3    10   1     0     1     1  2.50       0.500      0.05000   
   3    11   1     0     1     1  2.55       0.550      0.05000   
   3    12   1     0     1     1  2.60       0.600      0.05000   
   3    13   1     0     1     1  2.65       0.650      0.05000   
   3    14   1     0     1     1  2.70       0.700      0.05000   
   3    15   1     0     1     1  2.75       0.750      0.05000   
   3    16   1     0     1     1  2.80       0.800      0.05000   
   3    17   1     0     1     1  2.85       0.850      0.05000   
   3    18   1     0     1     1  2.90       0.900      0.05000   
   3    19   1     0     1     1  2.95       0.950      0.05000   
   3    20   1U    0     1     1  2.95       0.950      0.05000   
   3    20   2     0     1     1  2.96       0.963      0.01250   
   3    21   1     0     1     1  2.98       0.981      0.01875   
   3    22   1U    0     1     1  2.98       0.981      0.01875   
   3    22   2     0     1     1  2.99       0.986      0.004687  
   3    23   1U    0     1     1  2.99       0.986      0.007031  
   3    23   2     0     1     1  2.99       0.988      0.001758  
   3    24   1U    0     1     1  2.99       0.988      0.002637  
   3    24   2U    0     1     1  2.99       0.988      0.0006592 
   3    24   3     0     1     1  2.99       0.988      0.0001648 
   3    25   1U    0     1     1  2.99       0.988      0.0002472 
   3    25   2U    0     1     1  2.99       0.988      6.180e-05 
   3    25   3U    0     0     0  2.99       0.988      5.000e-05 
                          
 THE ANALYSIS HAS NOT BEEN COMPLETED
