 Abaqus/Standard 2021                  DATE 22-Feb-2023 TIME 18:40:22
 SUMMARY OF JOB INFORMATION:
 STEP  INC ATT SEVERE EQUIL TOTAL  TOTAL      STEP       INC OF       DOF    IF
               DISCON ITERS ITERS  TIME/    TIME/LPF    TIME/LPF    MONITOR RIKS
               ITERS               FREQ
   1     1   1     0     1     1  0.0500     0.0500     0.05000   
   1     2   1     0     1     1  0.100      0.100      0.05000   
   1     3   1     0     1     1  0.150      0.150      0.05000   
   1     4   1     0     1     1  0.200      0.200      0.05000   
   1     5   1     0     1     1  0.250      0.250      0.05000   
   1     6   1     0     1     1  0.300      0.300      0.05000   
   1     7   1     0     1     1  0.350      0.350      0.05000   
   1     8   1     0     1     1  0.400      0.400      0.05000   
   1     9   1     0     1     1  0.450      0.450      0.05000   
   1    10   1     0     1     1  0.500      0.500      0.05000   
   1    11   1     0     1     1  0.550      0.550      0.05000   
   1    12   1     0     1     1  0.600      0.600      0.05000   
   1    13   1     0     1     1  0.650      0.650      0.05000   
   1    14   1     0     1     1  0.700      0.700      0.05000   
   1    15   1     0     1     1  0.750      0.750      0.05000   
   1    16   1     0     1     1  0.800      0.800      0.05000   
   1    17   1     0     1     1  0.850      0.850      0.05000   
   1    18   1     0     1     1  0.900      0.900      0.05000   
   1    19   1     0     1     1  0.950      0.950      0.05000   
   1    20   1     0     1     1  1.00       1.00       0.05000   
   2     1   1     0     1     1  1.05       0.0500     0.05000   
   2     2   1     0     1     1  1.10       0.100      0.05000   
   2     3   1     0     1     1  1.15       0.150      0.05000   
   2     4   1     0     1     1  1.20       0.200      0.05000   
   2     5   1     0     1     1  1.25       0.250      0.05000   
   2     6   1     0     1     1  1.30       0.300      0.05000   
   2     7   1     0     1     1  1.35       0.350      0.05000   
   2     8   1     0     1     1  1.40       0.400      0.05000   
   2     9   1     0     1     1  1.45       0.450      0.05000   
   2    10   1     0     1     1  1.50       0.500      0.05000   
   2    11   1     0     1     1  1.55       0.550      0.05000   
   2    12   1     0     1     1  1.60       0.600      0.05000   
   2    13   1     0     1     1  1.65       0.650      0.05000   
   2    14   1     0     1     1  1.70       0.700      0.05000   
   2    15   1     0     1     1  1.75       0.750      0.05000   
   2    16   1     0     1     1  1.80       0.800      0.05000   
   2    17   1     0     1     1  1.85       0.850      0.05000   
   2    18   1     0     1     1  1.90       0.900      0.05000   
   2    19   1     0     1     1  1.95       0.950      0.05000   
   2    20   1     0     1     1  2.00       1.00       0.05000   
   3     1   1     0     1     1  2.05       0.0500     0.05000   
   3     2   1     0     1     1  2.10       0.100      0.05000   
   3     3   1     0     1     1  2.15       0.150      0.05000   
   3     4   1     0     1     1  2.20       0.200      0.05000   
   3     5   1     0     1     1  2.25       0.250      0.05000   
   3     6   1     0     1     1  2.30       0.300      0.05000   
   3     7   1     0     1     1  2.35       0.350      0.05000   
   3     8   1     0     1     1  2.40       0.400      0.05000   
   3     9   1     0     1     1  2.45       0.450      0.05000   
   3    10   1     0     1     1  2.50       0.500      0.05000   
   3    11   1     0     1     1  2.55       0.550      0.05000   
   3    12   1     0     1     1  2.60       0.600      0.05000   
   3    13   1     0     1     1  2.65       0.650      0.05000   
   3    14   1     0     1     1  2.70       0.700      0.05000   
   3    15   1     0     1     1  2.75       0.750      0.05000   
   3    16   1     0     1     1  2.80       0.800      0.05000   
   3    17   1     0     1     1  2.85       0.850      0.05000   
   3    18   1     0     1     1  2.90       0.900      0.05000   
   3    19   1     0     1     1  2.95       0.950      0.05000   
   3    20   1     0     1     1  3.00       1.00       0.05000   
   4     1   1     0     1     1  3.05       0.0500     0.05000   
   4     2   1     0     1     1  3.10       0.100      0.05000   
   4     3   1     0     1     1  3.15       0.150      0.05000   
   4     4   1     0     1     1  3.20       0.200      0.05000   
   4     5   1     0     1     1  3.25       0.250      0.05000   
   4     6   1     0     1     1  3.30       0.300      0.05000   
   4     7   1     0     1     1  3.35       0.350      0.05000   
   4     8   1     0     1     1  3.40       0.400      0.05000   
   4     9   1     0     1     1  3.45       0.450      0.05000   
   4    10   1     0     1     1  3.50       0.500      0.05000   
   4    11   1     0     1     1  3.55       0.550      0.05000   
   4    12   1     0     1     1  3.60       0.600      0.05000   
   4    13   1     0     1     1  3.65       0.650      0.05000   
   4    14   1     0     1     1  3.70       0.700      0.05000   
   4    15   1     0     1     1  3.75       0.750      0.05000   
   4    16   1     0     1     1  3.80       0.800      0.05000   
   4    17   1     0     1     1  3.85       0.850      0.05000   
   4    18   1     0     1     1  3.90       0.900      0.05000   
   4    19   1     0     1     1  3.95       0.950      0.05000   
   4    20   1     0     1     1  4.00       1.00       0.05000   
   5     1   1     0     1     1  4.05       0.0500     0.05000   
   5     2   1     0     1     1  4.10       0.100      0.05000   
   5     3   1     0     1     1  4.15       0.150      0.05000   
   5     4   1     0     1     1  4.20       0.200      0.05000   
   5     5   1     0     1     1  4.25       0.250      0.05000   
   5     6   1     0     1     1  4.30       0.300      0.05000   
   5     7   1     0     1     1  4.35       0.350      0.05000   
   5     8   1     0     1     1  4.40       0.400      0.05000   
   5     9   1     0     1     1  4.45       0.450      0.05000   
   5    10   1     0     1     1  4.50       0.500      0.05000   
   5    11   1     0     1     1  4.55       0.550      0.05000   
   5    12   1     0     1     1  4.60       0.600      0.05000   
   5    13   1     0     1     1  4.65       0.650      0.05000   
   5    14   1     0     1     1  4.70       0.700      0.05000   
   5    15   1     0     1     1  4.75       0.750      0.05000   
   5    16   1     0     1     1  4.80       0.800      0.05000   
   5    17   1     0     1     1  4.85       0.850      0.05000   
   5    18   1     0     1     1  4.90       0.900      0.05000   
   5    19   1     0     1     1  4.95       0.950      0.05000   
   5    20   1     0     1     1  5.00       1.00       0.05000   
   6     1   1     0     1     1  5.05       0.0500     0.05000   
   6     2   1     0     1     1  5.10       0.100      0.05000   
   6     3   1     0     1     1  5.15       0.150      0.05000   
   6     4   1     0     1     1  5.20       0.200      0.05000   
   6     5   1     0     1     1  5.25       0.250      0.05000   
   6     6   1     0     1     1  5.30       0.300      0.05000   
   6     7   1     0     1     1  5.35       0.350      0.05000   
   6     8   1     0     1     1  5.40       0.400      0.05000   
   6     9   1     0     1     1  5.45       0.450      0.05000   
   6    10   1     0     1     1  5.50       0.500      0.05000   
   6    11   1     0     1     1  5.55       0.550      0.05000   
   6    12   1     0     1     1  5.60       0.600      0.05000   
   6    13   1     0     1     1  5.65       0.650      0.05000   
   6    14   1     0     1     1  5.70       0.700      0.05000   
   6    15   1     0     1     1  5.75       0.750      0.05000   
   6    16   1     0     1     1  5.80       0.800      0.05000   
   6    17   1     0     1     1  5.85       0.850      0.05000   
   6    18   1     0     1     1  5.90       0.900      0.05000   
   6    19   1     0     1     1  5.95       0.950      0.05000   
   6    20   1     0     1     1  6.00       1.00       0.05000   
   7     1   1     0     1     1  6.05       0.0500     0.05000   
   7     2   1     0     1     1  6.10       0.100      0.05000   
   7     3   1     0     1     1  6.15       0.150      0.05000   
   7     4   1     0     1     1  6.20       0.200      0.05000   
   7     5   1     0     1     1  6.25       0.250      0.05000   
   7     6   1     0     1     1  6.30       0.300      0.05000   
   7     7   1     0     1     1  6.35       0.350      0.05000   
   7     8   1     0     1     1  6.40       0.400      0.05000   
   7     9   1     0     1     1  6.45       0.450      0.05000   
   7    10   1     0     1     1  6.50       0.500      0.05000   
   7    11   1     0     1     1  6.55       0.550      0.05000   
   7    12   1     0     1     1  6.60       0.600      0.05000   
   7    13   1     0     1     1  6.65       0.650      0.05000   
   7    14   1     0     1     1  6.70       0.700      0.05000   
   7    15   1     0     1     1  6.75       0.750      0.05000   
   7    16   1     0     1     1  6.80       0.800      0.05000   
   7    17   1     0     1     1  6.85       0.850      0.05000   
   7    18   1     0     1     1  6.90       0.900      0.05000   
   7    19   1     0     1     1  6.95       0.950      0.05000   
   7    20   1     0     1     1  7.00       1.00       0.05000   
   8     1   1     0     1     1  7.05       0.0500     0.05000   
   8     2   1     0     1     1  7.10       0.100      0.05000   
   8     3   1     0     1     1  7.15       0.150      0.05000   
   8     4   1     0     1     1  7.20       0.200      0.05000   
   8     5   1     0     1     1  7.25       0.250      0.05000   
   8     6   1     0     1     1  7.30       0.300      0.05000   
   8     7   1     0     1     1  7.35       0.350      0.05000   
   8     8   1     0     1     1  7.40       0.400      0.05000   
   8     9   1     0     1     1  7.45       0.450      0.05000   
   8    10   1     0     1     1  7.50       0.500      0.05000   
   8    11   1     0     1     1  7.55       0.550      0.05000   
   8    12   1     0     1     1  7.60       0.600      0.05000   
   8    13   1     0     1     1  7.65       0.650      0.05000   
   8    14   1     0     1     1  7.70       0.700      0.05000   
   8    15   1     0     1     1  7.75       0.750      0.05000   
   8    16   1     0     1     1  7.80       0.800      0.05000   
   8    17   1     0     1     1  7.85       0.850      0.05000   
   8    18   1     0     1     1  7.90       0.900      0.05000   
   8    19   1     0     1     1  7.95       0.950      0.05000   
   8    20   1     0     1     1  8.00       1.00       0.05000   
   9     1   1     0     1     1  8.05       0.0500     0.05000   
   9     2   1     0     1     1  8.10       0.100      0.05000   
   9     3   1     0     1     1  8.15       0.150      0.05000   
   9     4   1     0     1     1  8.20       0.200      0.05000   
   9     5   1     0     1     1  8.25       0.250      0.05000   
   9     6   1     0     1     1  8.30       0.300      0.05000   
   9     7   1     0     1     1  8.35       0.350      0.05000   
   9     8   1     0     1     1  8.40       0.400      0.05000   
   9     9   1     0     1     1  8.45       0.450      0.05000   
   9    10   1     0     1     1  8.50       0.500      0.05000   
   9    11   1     0     1     1  8.55       0.550      0.05000   
   9    12   1     0     1     1  8.60       0.600      0.05000   
   9    13   1     0     1     1  8.65       0.650      0.05000   
   9    14   1     0     1     1  8.70       0.700      0.05000   
   9    15   1     0     1     1  8.75       0.750      0.05000   
   9    16   1     0     1     1  8.80       0.800      0.05000   
   9    17   1     0     1     1  8.85       0.850      0.05000   
   9    18   1     0     1     1  8.90       0.900      0.05000   
   9    19   1     0     1     1  8.95       0.950      0.05000   
   9    20   1     0     1     1  9.00       1.00       0.05000   
  10     1   1     0     1     1  9.05       0.0500     0.05000   
  10     2   1     0     1     1  9.10       0.100      0.05000   
  10     3   1     0     1     1  9.15       0.150      0.05000   
  10     4   1     0     1     1  9.20       0.200      0.05000   
  10     5   1     0     1     1  9.25       0.250      0.05000   
  10     6   1     0     1     1  9.30       0.300      0.05000   
  10     7   1     0     1     1  9.35       0.350      0.05000   
  10     8   1     0     1     1  9.40       0.400      0.05000   
  10     9   1     0     1     1  9.45       0.450      0.05000   
  10    10   1     0     1     1  9.50       0.500      0.05000   
  10    11   1     0     1     1  9.55       0.550      0.05000   
  10    12   1     0     1     1  9.60       0.600      0.05000   
  10    13   1     0     1     1  9.65       0.650      0.05000   
  10    14   1     0     1     1  9.70       0.700      0.05000   
  10    15   1     0     1     1  9.75       0.750      0.05000   
  10    16   1     0     1     1  9.80       0.800      0.05000   
  10    17   1     0     1     1  9.85       0.850      0.05000   
  10    18   1     0     1     1  9.90       0.900      0.05000   
  10    19   1     0     1     1  9.95       0.950      0.05000   
  10    20   1     0     1     1  10.0       1.00       0.05000   
  11     1   1     0     1     1  10.1       0.0500     0.05000   
  11     2   1     0     1     1  10.1       0.100      0.05000   
  11     3   1     0     1     1  10.2       0.150      0.05000   
  11     4   1     0     1     1  10.2       0.200      0.05000   
  11     5   1     0     1     1  10.3       0.250      0.05000   
  11     6   1     0     1     1  10.3       0.300      0.05000   
  11     7   1     0     1     1  10.4       0.350      0.05000   
  11     8   1     0     1     1  10.4       0.400      0.05000   
  11     9   1     0     1     1  10.5       0.450      0.05000   
  11    10   1     0     1     1  10.5       0.500      0.05000   
  11    11   1     0     1     1  10.6       0.550      0.05000   
  11    12   1     0     1     1  10.6       0.600      0.05000   
  11    13   1     0     1     1  10.7       0.650      0.05000   
  11    14   1     0     1     1  10.7       0.700      0.05000   
  11    15   1     0     1     1  10.8       0.750      0.05000   
  11    16   1     0     1     1  10.8       0.800      0.05000   
  11    17   1     0     1     1  10.9       0.850      0.05000   
  11    18   1     0     1     1  10.9       0.900      0.05000   
  11    19   1     0     1     1  11.0       0.950      0.05000   
  11    20   1     0     1     1  11.0       1.00       0.05000   
  12     1   1     0     1     1  11.1       0.0500     0.05000   
  12     2   1     0     1     1  11.1       0.100      0.05000   
  12     3   1     0     1     1  11.2       0.150      0.05000   
  12     4   1     0     1     1  11.2       0.200      0.05000   
  12     5   1     0     1     1  11.3       0.250      0.05000   
  12     6   1     0     1     1  11.3       0.300      0.05000   
  12     7   1     0     1     1  11.4       0.350      0.05000   
  12     8   1     0     1     1  11.4       0.400      0.05000   
  12     9   1     0     1     1  11.5       0.450      0.05000   
  12    10   1     0     1     1  11.5       0.500      0.05000   
  12    11   1     0     1     1  11.6       0.550      0.05000   
  12    12   1     0     1     1  11.6       0.600      0.05000   
  12    13   1     0     1     1  11.7       0.650      0.05000   
  12    14   1     0     1     1  11.7       0.700      0.05000   
  12    15   1     0     1     1  11.8       0.750      0.05000   
  12    16   1     0     1     1  11.8       0.800      0.05000   
  12    17   1     0     1     1  11.9       0.850      0.05000   
  12    18   1     0     1     1  11.9       0.900      0.05000   
  12    19   1     0     1     1  12.0       0.950      0.05000   
  12    20   1     0     1     1  12.0       1.00       0.05000   
  13     1   1     0     1     1  12.1       0.0500     0.05000   
  13     2   1     0     1     1  12.1       0.100      0.05000   
  13     3   1     0     1     1  12.2       0.150      0.05000   
  13     4   1     0     1     1  12.2       0.200      0.05000   
  13     5   1     0     1     1  12.3       0.250      0.05000   
  13     6   1     0     1     1  12.3       0.300      0.05000   
  13     7   1     0     1     1  12.4       0.350      0.05000   
  13     8   1     0     1     1  12.4       0.400      0.05000   
  13     9   1     0     1     1  12.5       0.450      0.05000   
  13    10   1     0     1     1  12.5       0.500      0.05000   
  13    11   1     0     1     1  12.6       0.550      0.05000   
  13    12   1     0     1     1  12.6       0.600      0.05000   
  13    13   1     0     1     1  12.7       0.650      0.05000   
  13    14   1     0     1     1  12.7       0.700      0.05000   
  13    15   1     0     1     1  12.8       0.750      0.05000   
  13    16   1     0     1     1  12.8       0.800      0.05000   
  13    17   1     0     1     1  12.9       0.850      0.05000   
  13    18   1     0     1     1  12.9       0.900      0.05000   
  13    19   1     0     1     1  13.0       0.950      0.05000   
  13    20   1     0     1     1  13.0       1.00       0.05000   
  14     1   1     0     1     1  13.1       0.0500     0.05000   
  14     2   1     0     1     1  13.1       0.100      0.05000   
  14     3   1     0     1     1  13.2       0.150      0.05000   
  14     4   1     0     1     1  13.2       0.200      0.05000   
  14     5   1     0     1     1  13.3       0.250      0.05000   
  14     6   1     0     1     1  13.3       0.300      0.05000   
  14     7   1     0     1     1  13.4       0.350      0.05000   
  14     8   1     0     1     1  13.4       0.400      0.05000   
  14     9   1     0     1     1  13.5       0.450      0.05000   
  14    10   1     0     1     1  13.5       0.500      0.05000   
  14    11   1     0     1     1  13.6       0.550      0.05000   
  14    12   1     0     1     1  13.6       0.600      0.05000   
  14    13   1     0     1     1  13.7       0.650      0.05000   
  14    14   1     0     1     1  13.7       0.700      0.05000   
  14    15   1     0     1     1  13.8       0.750      0.05000   
  14    16   1     0     1     1  13.8       0.800      0.05000   
  14    17   1     0     1     1  13.9       0.850      0.05000   
  14    18   1     0     1     1  13.9       0.900      0.05000   
  14    19   1     0     1     1  14.0       0.950      0.05000   
  14    20   1     0     1     1  14.0       1.00       0.05000   
  15     1   1     0     1     1  14.1       0.0500     0.05000   
  15     2   1     0     1     1  14.1       0.100      0.05000   
  15     3   1     0     1     1  14.2       0.150      0.05000   
  15     4   1     0     1     1  14.2       0.200      0.05000   
  15     5   1     0     1     1  14.3       0.250      0.05000   
  15     6   1     0     1     1  14.3       0.300      0.05000   
  15     7   1     0     1     1  14.4       0.350      0.05000   
  15     8   1     0     1     1  14.4       0.400      0.05000   
  15     9   1     0     1     1  14.5       0.450      0.05000   
  15    10   1     0     1     1  14.5       0.500      0.05000   
  15    11   1     0     1     1  14.6       0.550      0.05000   
  15    12   1     0     1     1  14.6       0.600      0.05000   
  15    13   1     0     1     1  14.7       0.650      0.05000   
  15    14   1     0     1     1  14.7       0.700      0.05000   
  15    15   1     0     1     1  14.8       0.750      0.05000   
  15    16   1     0     1     1  14.8       0.800      0.05000   
  15    17   1     0     1     1  14.9       0.850      0.05000   
  15    18   1     0     1     1  14.9       0.900      0.05000   
  15    19   1     0     1     1  15.0       0.950      0.05000   
  15    20   1     0     1     1  15.0       1.00       0.05000   
  16     1   1     0     1     1  15.1       0.0500     0.05000   
  16     2   1     0     1     1  15.1       0.100      0.05000   
  16     3   1     0     1     1  15.2       0.150      0.05000   
  16     4   1     0     1     1  15.2       0.200      0.05000   
  16     5   1     0     1     1  15.3       0.250      0.05000   
  16     6   1     0     1     1  15.3       0.300      0.05000   
  16     7   1     0     1     1  15.4       0.350      0.05000   
  16     8   1     0     1     1  15.4       0.400      0.05000   
  16     9   1     0     1     1  15.5       0.450      0.05000   
  16    10   1     0     1     1  15.5       0.500      0.05000   
  16    11   1     0     1     1  15.6       0.550      0.05000   
  16    12   1     0     1     1  15.6       0.600      0.05000   
  16    13   1     0     1     1  15.7       0.650      0.05000   
  16    14   1     0     1     1  15.7       0.700      0.05000   
  16    15   1     0     1     1  15.8       0.750      0.05000   
  16    16   1     0     1     1  15.8       0.800      0.05000   
  16    17   1     0     1     1  15.9       0.850      0.05000   
  16    18   1     0     1     1  15.9       0.900      0.05000   
  16    19   1     0     1     1  16.0       0.950      0.05000   
  16    20   1     0     1     1  16.0       1.00       0.05000   
  17     1   1     0     1     1  16.1       0.0500     0.05000   
  17     2   1     0     1     1  16.1       0.100      0.05000   
  17     3   1     0     1     1  16.2       0.150      0.05000   
  17     4   1     0     1     1  16.2       0.200      0.05000   
  17     5   1     0     1     1  16.3       0.250      0.05000   
  17     6   1     0     1     1  16.3       0.300      0.05000   
  17     7   1     0     1     1  16.4       0.350      0.05000   
  17     8   1     0     1     1  16.4       0.400      0.05000   
  17     9   1     0     1     1  16.5       0.450      0.05000   
  17    10   1     0     1     1  16.5       0.500      0.05000   
  17    11   1     0     1     1  16.6       0.550      0.05000   
  17    12   1     0     1     1  16.6       0.600      0.05000   
  17    13   1     0     1     1  16.7       0.650      0.05000   
  17    14   1     0     1     1  16.7       0.700      0.05000   
  17    15   1     0     1     1  16.8       0.750      0.05000   
  17    16   1     0     1     1  16.8       0.800      0.05000   
  17    17   1     0     1     1  16.9       0.850      0.05000   
  17    18   1     0     1     1  16.9       0.900      0.05000   
  17    19   1     0     1     1  17.0       0.950      0.05000   
  17    20   1     0     1     1  17.0       1.00       0.05000   
  18     1   1     0     1     1  17.1       0.0500     0.05000   
  18     2   1     0     1     1  17.1       0.100      0.05000   
  18     3   1     0     1     1  17.2       0.150      0.05000   
  18     4   1     0     1     1  17.2       0.200      0.05000   
  18     5   1     0     1     1  17.3       0.250      0.05000   
  18     6   1     0     1     1  17.3       0.300      0.05000   
  18     7   1     0     1     1  17.4       0.350      0.05000   
  18     8   1     0     1     1  17.4       0.400      0.05000   
  18     9   1     0     1     1  17.5       0.450      0.05000   
  18    10   1     0     1     1  17.5       0.500      0.05000   
  18    11   1     0     1     1  17.6       0.550      0.05000   
  18    12   1     0     1     1  17.6       0.600      0.05000   
  18    13   1     0     1     1  17.7       0.650      0.05000   
  18    14   1     0     1     1  17.7       0.700      0.05000   
  18    15   1     0     1     1  17.8       0.750      0.05000   
  18    16   1     0     1     1  17.8       0.800      0.05000   
  18    17   1     0     1     1  17.9       0.850      0.05000   
  18    18   1     0     1     1  17.9       0.900      0.05000   
  18    19   1     0     1     1  18.0       0.950      0.05000   
  18    20   1     0     1     1  18.0       1.00       0.05000   
  19     1   1     0     1     1  18.1       0.0500     0.05000   
  19     2   1     0     1     1  18.1       0.100      0.05000   
  19     3   1     0     1     1  18.2       0.150      0.05000   
  19     4   1     0     1     1  18.2       0.200      0.05000   
  19     5   1     0     1     1  18.3       0.250      0.05000   
  19     6   1     0     1     1  18.3       0.300      0.05000   
  19     7   1     0     1     1  18.4       0.350      0.05000   
  19     8   1     0     1     1  18.4       0.400      0.05000   
  19     9   1     0     1     1  18.5       0.450      0.05000   
  19    10   1     0     1     1  18.5       0.500      0.05000   
  19    11   1     0     1     1  18.6       0.550      0.05000   
  19    12   1     0     1     1  18.6       0.600      0.05000   
  19    13   1     0     1     1  18.7       0.650      0.05000   
  19    14   1     0     1     1  18.7       0.700      0.05000   
  19    15   1     0     1     1  18.8       0.750      0.05000   
  19    16   1     0     1     1  18.8       0.800      0.05000   
  19    17   1     0     1     1  18.9       0.850      0.05000   
  19    18   1     0     1     1  18.9       0.900      0.05000   
  19    19   1     0     1     1  19.0       0.950      0.05000   
  19    20   1     0     1     1  19.0       1.00       0.05000   
  20     1   1     0     1     1  19.1       0.0500     0.05000   
  20     2   1     0     1     1  19.1       0.100      0.05000   
  20     3   1     0     1     1  19.2       0.150      0.05000   
  20     4   1     0     1     1  19.2       0.200      0.05000   
  20     5   1     0     1     1  19.3       0.250      0.05000   
  20     6   1     0     1     1  19.3       0.300      0.05000   
  20     7   1     0     1     1  19.4       0.350      0.05000   
  20     8   1     0     1     1  19.4       0.400      0.05000   
  20     9   1     0     1     1  19.5       0.450      0.05000   
  20    10   1     0     1     1  19.5       0.500      0.05000   
  20    11   1     0     1     1  19.6       0.550      0.05000   
  20    12   1     0     1     1  19.6       0.600      0.05000   
  20    13   1     0     1     1  19.7       0.650      0.05000   
  20    14   1     0     1     1  19.7       0.700      0.05000   
  20    15   1     0     1     1  19.8       0.750      0.05000   
  20    16   1     0     1     1  19.8       0.800      0.05000   
  20    17   1     0     1     1  19.9       0.850      0.05000   
  20    18   1     0     1     1  19.9       0.900      0.05000   
  20    19   1     0     1     1  20.0       0.950      0.05000   
  20    20   1     0     1     1  20.0       1.00       0.05000   
  21     1   1     0     1     1  20.1       0.0500     0.05000   
  21     2   1     0     1     1  20.1       0.100      0.05000   
  21     3   1     0     1     1  20.2       0.150      0.05000   
  21     4   1     0     1     1  20.2       0.200      0.05000   
  21     5   1U    0     1     1  20.2       0.200      0.05000   
  21     5   2     0     1     1  20.2       0.213      0.01250   
  21     6   1U    0     1     1  20.2       0.213      0.01875   
  21     6   2     0     1     1  20.2       0.217      0.004688  
  21     7   1U    0     1     1  20.2       0.217      0.007031  
  21     7   2U    0     1     1  20.2       0.217      0.001758  
  21     7   3     0     1     1  20.2       0.218      0.0004395 
  21     8   1U    0     1     1  20.2       0.218      0.0006592 
  21     8   2     0     1     1  20.2       0.218      0.0001648 
  21     9   1     0     1     1  20.2       0.218      0.0002472 
  21    10   1U    0     1     1  20.2       0.218      0.0003708 
  21    10   2     0     1     1  20.2       0.218      9.270e-05 
  21    11   1U    0     1     1  20.2       0.218      0.0001390 
  21    11   2     0     1     1  20.2       0.218      5.000e-05 
  21    12   1U    0     1     1  20.2       0.218      7.500e-05 
  21    12   2     0     1     1  20.2       0.218      5.000e-05 
  21    13   1U    0     1     1  20.2       0.218      7.500e-05 
  21    13   2U    0     0     0  20.2       0.218      5.000e-05 
                          
 THE ANALYSIS HAS NOT BEEN COMPLETED
