 Abaqus/Standard 2021.HF4                  DATE 24-Feb-2023 TIME 15:51:28
 SUMMARY OF JOB INFORMATION:
 STEP  INC ATT SEVERE EQUIL TOTAL  TOTAL      STEP       INC OF       DOF    IF
               DISCON ITERS ITERS  TIME/    TIME/LPF    TIME/LPF    MONITOR RIKS
               ITERS               FREQ
   1     1   1     0     1     1  0.0500     0.0500     0.05000   
   1     2   1     0     1     1  0.100      0.100      0.05000   
   1     3   1     0     1     1  0.150      0.150      0.05000   
   1     4   1     0     1     1  0.200      0.200      0.05000   
   1     5   1     0     1     1  0.250      0.250      0.05000   
   1     6   1     0     1     1  0.300      0.300      0.05000   
   1     7   1     0     1     1  0.350      0.350      0.05000   
   1     8   1     0     1     1  0.400      0.400      0.05000   
   1     9   1     0     1     1  0.450      0.450      0.05000   
   1    10   1     0     1     1  0.500      0.500      0.05000   
   1    11   1     0     1     1  0.550      0.550      0.05000   
   1    12   1     0     1     1  0.600      0.600      0.05000   
   1    13   1     0     1     1  0.650      0.650      0.05000   
   1    14   1     0     1     1  0.700      0.700      0.05000   
   1    15   1     0     1     1  0.750      0.750      0.05000   
   1    16   1U    0     1     1  0.750      0.750      0.05000   
   1    16   2     0     1     1  0.763      0.763      0.01250   
   1    17   1U    0     1     1  0.763      0.763      0.01875   
   1    17   2     0     1     1  0.767      0.767      0.004688  
   1    18   1     0     1     1  0.774      0.774      0.007031  
   1    19   1U    0     1     1  0.774      0.774      0.01055   
   1    19   2     0     1     1  0.777      0.777      0.002637  
   1    20   1U    0     1     1  0.777      0.777      0.003955  
   1    20   2     0     1     1  0.778      0.778      0.0009888 
   1    21   1     0     1     1  0.779      0.779      0.001483  
   1    22   1U    0     1     1  0.779      0.779      0.002225  
   1    22   2     0     1     1  0.780      0.780      0.0005562 
   1    23   1U    0     1     1  0.780      0.780      0.0008343 
   1    23   2U    0     1     1  0.780      0.780      0.0002086 
   1    23   3     0     1     1  0.780      0.780      5.214e-05 
   1    24   1     0     1     1  0.780      0.780      7.821e-05 
   1    25   1U    0     1     1  0.780      0.780      0.0001173 
   1    25   2     0     1     1  0.780      0.780      5.000e-05 
   1    26   1U    0     1     1  0.780      0.780      7.500e-05 
   1    26   2U    0     0     0  0.780      0.780      5.000e-05 
                          
 THE ANALYSIS HAS NOT BEEN COMPLETED
