1

   Abaqus 2021                                  Date 22-Feb-2023   Time 19:07:45
   For use by UNIVERSITAET BERN under license from Dassault Systemes or its subsidiary.

                                                                                 
                                                                                 
 STEP    1     INCREMENT     1     STEP TIME    0.00    


                        S T E P       1     S T A T I C   A N A L Y S I S


                                                                                          

     AUTOMATIC TIME CONTROL WITH -
          A SUGGESTED INITIAL TIME INCREMENT OF                5.000E-02
          AND A TOTAL TIME PERIOD OF                            1.00    
          THE MINIMUM TIME INCREMENT ALLOWED IS                5.000E-05
          THE MAXIMUM TIME INCREMENT ALLOWED IS                5.000E-02

     LINEAR EQUATION SOLVER TYPE         DIRECT SPARSE

 CONVERGENCE TOLERANCE PARAMETERS FOR FORCE    
     CRITERION FOR RESIDUAL FORCE     FOR A NONLINEAR PROBLEM          5.000E-03
     CRITERION FOR DISP.    CORRECTION IN A NONLINEAR PROBLEM          1.000E-02
     INITIAL VALUE OF TIME AVERAGE FORCE                               1.000E-02
     AVERAGE FORCE     IS TIME AVERAGE FORCE    
     ALTERNATE CRIT. FOR RESIDUAL FORCE     FOR A NONLINEAR PROBLEM    2.000E-02
     CRITERION FOR ZERO FORCE     RELATIVE TO TIME AVRG. FORCE         1.000E-05
     CRITERION FOR RESIDUAL FORCE     WHEN THERE IS ZERO FLUX          1.000E-05
     CRITERION FOR DISP.    CORRECTION WHEN THERE IS ZERO FLUX         1.000E-03
     CRITERION FOR RESIDUAL FORCE     FOR A LINEAR INCREMENT           1.000E-08
     FIELD CONVERSION RATIO                                             1.00    
     CRITERION FOR ZERO FORCE     REL. TO TIME AVRG. MAX. FORCE        1.000E-05
     CRITERION FOR ZERO DISP.    RELATIVE TO CHARACTERISTIC LENGTH     1.000E-08

 CONVERGENCE TOLERANCE PARAMETERS FOR MOMENT   
     CRITERION FOR RESIDUAL MOMENT    FOR A NONLINEAR PROBLEM          5.000E-03
     CRITERION FOR ROTATION CORRECTION IN A NONLINEAR PROBLEM          1.000E-02
     INITIAL VALUE OF TIME AVERAGE MOMENT                              1.000E-02
     AVERAGE MOMENT    IS TIME AVERAGE MOMENT   
     ALTERNATE CRIT. FOR RESIDUAL MOMENT    FOR A NONLINEAR PROBLEM    2.000E-02
     CRITERION FOR ZERO MOMENT    RELATIVE TO TIME AVRG. MOMENT        1.000E-05
     CRITERION FOR RESIDUAL MOMENT    WHEN THERE IS ZERO FLUX          1.000E-05
     CRITERION FOR ROTATION CORRECTION WHEN THERE IS ZERO FLUX         1.000E-03
     CRITERION FOR RESIDUAL MOMENT    FOR A LINEAR INCREMENT           1.000E-08
     FIELD CONVERSION RATIO                                             1.00    
     CRITERION FOR ZERO MOMENT    REL. TO TIME AVRG. MAX. MOMENT       1.000E-05

     VOLUMETRIC STRAIN COMPATIBILITY TOLERANCE FOR HYBRID SOLIDS       1.000E-05
     AXIAL STRAIN COMPATIBILITY TOLERANCE FOR HYBRID BEAMS             1.000E-05
     TRANS. SHEAR STRAIN COMPATIBILITY TOLERANCE FOR HYBRID BEAMS      1.000E-05
     SOFT CONTACT CONSTRAINT COMPATIBILITY TOLERANCE FOR P>P0          5.000E-03
     SOFT CONTACT CONSTRAINT COMPATIBILITY TOLERANCE FOR P=0.0         0.100    
     CONTACT FORCE ERROR TOLERANCE FOR CONVERT SDI=YES                 1.00    
     DISPLACEMENT COMPATIBILITY TOLERANCE FOR DCOUP ELEMENTS           1.000E-05
     ROTATION COMPATIBILITY TOLERANCE FOR DCOUP ELEMENTS               1.000E-05

 EQUILIBRIUM WILL BE CHECKED FOR SEVERE DISCONTINUITY ITERATIONS

 TIME INCREMENTATION CONTROL PARAMETERS:
     FIRST EQUILIBRIUM ITERATION FOR CONSECUTIVE DIVERGENCE CHECK              4
     EQUILIBRIUM ITERATION AT WHICH LOG. CONVERGENCE RATE CHECK BEGINS         8
     EQUILIBRIUM ITERATION AFTER WHICH ALTERNATE RESIDUAL IS USED              9
     MAXIMUM EQUILIBRIUM ITERATIONS ALLOWED                                   16
     EQUILIBRIUM ITERATION COUNT FOR CUT-BACK IN NEXT INCREMENT               10
     MAXIMUM EQUILIB. ITERS IN TWO INCREMENTS FOR TIME INCREMENT INCREASE      4
     MAXIMUM ITERATIONS FOR SEVERE DISCONTINUITIES                            50
     MAXIMUM ATTEMPTS ALLOWED IN AN INCREMENT                                  5
     MAXIMUM DISCON. ITERS IN TWO INCREMENTS FOR TIME INCREMENT INCREASE      50
     MAXIMUM CONTACT AUGMENTATIONS FOR *SURFACE BEHAVIOR,AUGMENTED LAGRANGE   50
     CUT-BACK FACTOR AFTER DIVERGENCE                                 0.2500    
     CUT-BACK FACTOR FOR TOO SLOW CONVERGENCE                         0.5000    
     CUT-BACK FACTOR AFTER TOO MANY EQUILIBRIUM ITERATIONS            0.7500    
     CUT-BACK FACTOR AFTER TOO MANY SEVERE DISCONTINUITY ITERATIONS   0.2500    
     CUT-BACK FACTOR AFTER PROBLEMS IN ELEMENT ASSEMBLY               0.2500    
     INCREASE FACTOR AFTER TWO INCREMENTS THAT CONVERGE QUICKLY        1.500    
     MAX. TIME INCREMENT INCREASE FACTOR ALLOWED                       1.500    
     MAX. TIME INCREMENT INCREASE FACTOR ALLOWED (DYNAMICS)            1.250    
     MAX. TIME INCREMENT INCREASE FACTOR ALLOWED (DIFFUSION)           2.000    
     MINIMUM TIME INCREMENT RATIO FOR EXTRAPOLATION TO OCCUR          0.1000    
     MAX. RATIO OF TIME INCREMENT TO STABILITY LIMIT                   1.000    
     FRACTION OF STABILITY LIMIT FOR NEW TIME INCREMENT               0.9500    
     TIME INCREMENT INCREASE FACTOR BEFORE A TIME POINT                1.000    
     GLOBAL STABILIZATION CONTROL IS NOT USED

          PRINT OF INCREMENT NUMBER, TIME, ETC., EVERY    1  INCREMENTS

     THE MAXIMUM NUMBER OF INCREMENTS IN THIS STEP IS                    1000

          LARGE DISPLACEMENT THEORY WILL BE USED

          UNSYMMETRIC MATRIX STORAGE AND SOLUTION WILL BE USED

     LINEAR EXTRAPOLATION WILL BE USED

     CHARACTERISTIC ELEMENT LENGTH      1.24    

     DETAILS REGARDING ACTUAL SOLUTION WAVEFRONT REQUESTED

     DETAILED OUTPUT OF DIAGNOSTICS TO DATABASE REQUESTED

     PRINT OF INCREMENT NUMBER, TIME, ETC., TO THE MESSAGE FILE EVERY     1  INCREMENTS

     ELEMENT OPERATIONS WILL BE CARRIED OUT IN PARALLEL USING  42 PROCESSORS

     PARALLEL CONTACT TRACKING ENABLED


     COLLECTING MODEL CONSTRAINT INFORMATION FOR OVERCONSTRAINT CHECKS

     COLLECTING STEP CONSTRAINT INFORMATION FOR OVERCONSTRAINT CHECKS


  INCREMENT     1 STARTS. ATTEMPT NUMBER  1, TIME INCREMENT  5.000E-02
 
     INITIAL ELEMENT LOAD BALANCE
            PROCESS    1   THREAD     NUMBER OF ELEMENTS
                              1            10
                              2            10
                              3            10
                              4            10
                              5            10
                              6            10
                              7            10
                              8            10
                              9            10
                             10            10
                             11            10
                             12            10
                             13            10
                             14            10
                             15            10
                             16            10
                             17            10
                             18            10
                             19            10
                             20            10
                             21            10
                             22            10
                             23            10
                             24            10
                             25            10
                             26            10
                             27            10
                             28            10
                             29            10
                             30            10
                             31            10
                             32            10
                             33            10
                             34            10
                             35            10
                             36            10
                             37            10
                             38            10
                             39            10
                             40            14
                             41            10
                             42            10

  NUMBER OF EQUATIONS =      1419     NUMBER OF RHS =    1
  NUMBER OF FLOATING PT. OPERATIONS =  9.98E+06

  USING THE DIRECT SOLVER WITH  42 PROCESSORS

     CHECK POINT   START OF SOLVER    

     CHECK POINT  END OF SOLVER       

       ELAPSED USER TIME (SEC)      =   5.3500    
       ELAPSED SYSTEM TIME (SEC)    =  6.00000E-02
       ELAPSED TOTAL CPU TIME (SEC) =   5.4100    
       ELAPSED WALLCLOCK TIME (SEC) =          1

               CONVERGENCE CHECKS FOR EQUILIBRIUM ITERATION     1


 AVERAGE FORCE                       1.81       TIME AVG. FORCE        1.81    
 ALL FORCE     RESIDUALS ARE ZERO
 LARGEST INCREMENT OF DISP.         1.408E-02   AT NODE        989   DOF  3
 LARGEST CORRECTION TO DISP.        1.408E-02   AT NODE        989   DOF  3
          THE FORCE     EQUILIBRIUM RESPONSE WAS LINEAR IN THIS INCREMENT

 AVERAGE MOMENT                      0.00       TIME AVG. MOMENT       2.25    
                                                (FROM FORCE     FIELD)
 ALL MOMENT    RESIDUALS ARE ZERO
 LARGEST INCREMENT OF ROTATION      6.000E-04   AT NODE        134   DOF  4
 LARGEST CORRECTION TO ROTATION     6.000E-04   AT NODE        134   DOF  4
          THERE IS ZERO MOMENT    EVERYWHERE

 ITERATION SUMMARY FOR THE INCREMENT:   1 TOTAL ITERATIONS, OF WHICH
   0 ARE SEVERE DISCONTINUITY ITERATIONS AND  1 ARE EQUILIBRIUM ITERATIONS.

 TIME INCREMENT COMPLETED  5.000E-02,  FRACTION OF STEP COMPLETED  5.000E-02
 STEP TIME COMPLETED       5.000E-02,  TOTAL TIME COMPLETED        5.000E-02


  INCREMENT     2 STARTS. ATTEMPT NUMBER  1, TIME INCREMENT  5.000E-02

  NUMBER OF EQUATIONS =      1419     NUMBER OF RHS =    1
  NUMBER OF FLOATING PT. OPERATIONS =  9.98E+06

  USING THE DIRECT SOLVER WITH  42 PROCESSORS

     CHECK POINT   START OF SOLVER    

     CHECK POINT  END OF SOLVER       

       ELAPSED USER TIME (SEC)      =  0.67000    
       ELAPSED SYSTEM TIME (SEC)    =  0.14000    
       ELAPSED TOTAL CPU TIME (SEC) =  0.81000    
       ELAPSED WALLCLOCK TIME (SEC) =          0

               CONVERGENCE CHECKS FOR EQUILIBRIUM ITERATION     1


 AVERAGE FORCE                       3.00       TIME AVG. FORCE        2.41    
 ALL FORCE     RESIDUALS ARE ZERO
 LARGEST INCREMENT OF DISP.         1.407E-02   AT NODE        989   DOF  3
 LARGEST CORRECTION TO DISP.       -7.878E-06   AT NODE        989   DOF  2
          THE FORCE     EQUILIBRIUM RESPONSE WAS LINEAR IN THIS INCREMENT

 AVERAGE MOMENT                      0.00       TIME AVG. MOMENT       2.25    
                                                (FROM FORCE     FIELD)
 ALL MOMENT    RESIDUALS ARE ZERO
 LARGEST INCREMENT OF ROTATION      6.000E-04   AT NODE        134   DOF  4
 LARGEST CORRECTION TO ROTATION    -7.742E-32   AT NODE        134   DOF  4
          THERE IS ZERO MOMENT    EVERYWHERE

 ITERATION SUMMARY FOR THE INCREMENT:   1 TOTAL ITERATIONS, OF WHICH
   0 ARE SEVERE DISCONTINUITY ITERATIONS AND  1 ARE EQUILIBRIUM ITERATIONS.

 TIME INCREMENT COMPLETED  5.000E-02,  FRACTION OF STEP COMPLETED  0.100    
 STEP TIME COMPLETED       0.100    ,  TOTAL TIME COMPLETED        0.100    


  INCREMENT     3 STARTS. ATTEMPT NUMBER  1, TIME INCREMENT  5.000E-02

  NUMBER OF EQUATIONS =      1419     NUMBER OF RHS =    1
  NUMBER OF FLOATING PT. OPERATIONS =  9.98E+06

  USING THE DIRECT SOLVER WITH  42 PROCESSORS

     CHECK POINT   START OF SOLVER    

     CHECK POINT  END OF SOLVER       

       ELAPSED USER TIME (SEC)      =  0.34000    
       ELAPSED SYSTEM TIME (SEC)    =  7.00000E-02
       ELAPSED TOTAL CPU TIME (SEC) =  0.41000    
       ELAPSED WALLCLOCK TIME (SEC) =          0

               CONVERGENCE CHECKS FOR EQUILIBRIUM ITERATION     1


 AVERAGE FORCE                       4.07       TIME AVG. FORCE        2.96    
 ALL FORCE     RESIDUALS ARE ZERO
 LARGEST INCREMENT OF DISP.         1.407E-02   AT NODE        989   DOF  3
 LARGEST CORRECTION TO DISP.       -7.878E-06   AT NODE        989   DOF  2
          THE FORCE     EQUILIBRIUM RESPONSE WAS LINEAR IN THIS INCREMENT

 AVERAGE MOMENT                      0.00       TIME AVG. MOMENT       2.99    
                                                (FROM FORCE     FIELD)
 ALL MOMENT    RESIDUALS ARE ZERO
 LARGEST INCREMENT OF ROTATION      6.000E-04   AT NODE        134   DOF  4
 LARGEST CORRECTION TO ROTATION     2.168E-19   AT NODE        134   DOF  5
          THERE IS ZERO MOMENT    EVERYWHERE

 ITERATION SUMMARY FOR THE INCREMENT:   1 TOTAL ITERATIONS, OF WHICH
   0 ARE SEVERE DISCONTINUITY ITERATIONS AND  1 ARE EQUILIBRIUM ITERATIONS.

 TIME INCREMENT COMPLETED  5.000E-02,  FRACTION OF STEP COMPLETED  0.150    
 STEP TIME COMPLETED       0.150    ,  TOTAL TIME COMPLETED        0.150    


  INCREMENT     4 STARTS. ATTEMPT NUMBER  1, TIME INCREMENT  5.000E-02

  NUMBER OF EQUATIONS =      1419     NUMBER OF RHS =    1
  NUMBER OF FLOATING PT. OPERATIONS =  9.98E+06

  USING THE DIRECT SOLVER WITH  42 PROCESSORS

     CHECK POINT   START OF SOLVER    

     CHECK POINT  END OF SOLVER       

       ELAPSED USER TIME (SEC)      =  0.28000    
       ELAPSED SYSTEM TIME (SEC)    =  9.00000E-02
       ELAPSED TOTAL CPU TIME (SEC) =  0.37000    
       ELAPSED WALLCLOCK TIME (SEC) =          0

               CONVERGENCE CHECKS FOR EQUILIBRIUM ITERATION     1


 AVERAGE FORCE                       5.05       TIME AVG. FORCE        3.48    
 ALL FORCE     RESIDUALS ARE ZERO
 LARGEST INCREMENT OF DISP.         1.407E-02   AT NODE        989   DOF  3
 LARGEST CORRECTION TO DISP.       -7.879E-06   AT NODE        989   DOF  2
          THE FORCE     EQUILIBRIUM RESPONSE WAS LINEAR IN THIS INCREMENT

 AVERAGE MOMENT                      0.00       TIME AVG. MOMENT       3.67    
                                                (FROM FORCE     FIELD)
 ALL MOMENT    RESIDUALS ARE ZERO
 LARGEST INCREMENT OF ROTATION      6.000E-04   AT NODE        134   DOF  4
 LARGEST CORRECTION TO ROTATION    -8.674E-19   AT NODE        134   DOF  4
          THERE IS ZERO MOMENT    EVERYWHERE

 ITERATION SUMMARY FOR THE INCREMENT:   1 TOTAL ITERATIONS, OF WHICH
   0 ARE SEVERE DISCONTINUITY ITERATIONS AND  1 ARE EQUILIBRIUM ITERATIONS.

 TIME INCREMENT COMPLETED  5.000E-02,  FRACTION OF STEP COMPLETED  0.200    
 STEP TIME COMPLETED       0.200    ,  TOTAL TIME COMPLETED        0.200    


  INCREMENT     5 STARTS. ATTEMPT NUMBER  1, TIME INCREMENT  5.000E-02

  NUMBER OF EQUATIONS =      1419     NUMBER OF RHS =    1
  NUMBER OF FLOATING PT. OPERATIONS =  9.98E+06

  USING THE DIRECT SOLVER WITH  42 PROCESSORS

     CHECK POINT   START OF SOLVER    

     CHECK POINT  END OF SOLVER       

       ELAPSED USER TIME (SEC)      =  0.28000    
       ELAPSED SYSTEM TIME (SEC)    =  9.00000E-02
       ELAPSED TOTAL CPU TIME (SEC) =  0.37000    
       ELAPSED WALLCLOCK TIME (SEC) =          0

               CONVERGENCE CHECKS FOR EQUILIBRIUM ITERATION     1


 AVERAGE FORCE                       6.00       TIME AVG. FORCE        3.99    
 ALL FORCE     RESIDUALS ARE ZERO
 LARGEST INCREMENT OF DISP.         1.407E-02   AT NODE        989   DOF  3
 LARGEST CORRECTION TO DISP.       -7.880E-06   AT NODE        989   DOF  2
          THE FORCE     EQUILIBRIUM RESPONSE WAS LINEAR IN THIS INCREMENT

 AVERAGE MOMENT                      0.00       TIME AVG. MOMENT       4.32    
                                                (FROM FORCE     FIELD)
 ALL MOMENT    RESIDUALS ARE ZERO
 LARGEST INCREMENT OF ROTATION      6.000E-04   AT NODE        134   DOF  4
 LARGEST CORRECTION TO ROTATION     4.337E-19   AT NODE        134   DOF  4
          THERE IS ZERO MOMENT    EVERYWHERE

 ITERATION SUMMARY FOR THE INCREMENT:   1 TOTAL ITERATIONS, OF WHICH
   0 ARE SEVERE DISCONTINUITY ITERATIONS AND  1 ARE EQUILIBRIUM ITERATIONS.

 TIME INCREMENT COMPLETED  5.000E-02,  FRACTION OF STEP COMPLETED  0.250    
 STEP TIME COMPLETED       0.250    ,  TOTAL TIME COMPLETED        0.250    


  INCREMENT     6 STARTS. ATTEMPT NUMBER  1, TIME INCREMENT  5.000E-02

  NUMBER OF EQUATIONS =      1419     NUMBER OF RHS =    1
  NUMBER OF FLOATING PT. OPERATIONS =  9.98E+06

  USING THE DIRECT SOLVER WITH  42 PROCESSORS

     CHECK POINT   START OF SOLVER    

     CHECK POINT  END OF SOLVER       

       ELAPSED USER TIME (SEC)      =  0.27000    
       ELAPSED SYSTEM TIME (SEC)    =  0.12000    
       ELAPSED TOTAL CPU TIME (SEC) =  0.39000    
       ELAPSED WALLCLOCK TIME (SEC) =          0

               CONVERGENCE CHECKS FOR EQUILIBRIUM ITERATION     1


 AVERAGE FORCE                       6.94       TIME AVG. FORCE        4.48    
 ALL FORCE     RESIDUALS ARE ZERO
 LARGEST INCREMENT OF DISP.         1.407E-02   AT NODE        989   DOF  3
 LARGEST CORRECTION TO DISP.       -7.881E-06   AT NODE        989   DOF  2
          THE FORCE     EQUILIBRIUM RESPONSE WAS LINEAR IN THIS INCREMENT

 AVERAGE MOMENT                      0.00       TIME AVG. MOMENT       4.95    
                                                (FROM FORCE     FIELD)
 ALL MOMENT    RESIDUALS ARE ZERO
 LARGEST INCREMENT OF ROTATION      6.000E-04   AT NODE        134   DOF  4
 LARGEST CORRECTION TO ROTATION    -4.337E-19   AT NODE        134   DOF  4
          THERE IS ZERO MOMENT    EVERYWHERE

 ITERATION SUMMARY FOR THE INCREMENT:   1 TOTAL ITERATIONS, OF WHICH
   0 ARE SEVERE DISCONTINUITY ITERATIONS AND  1 ARE EQUILIBRIUM ITERATIONS.

 TIME INCREMENT COMPLETED  5.000E-02,  FRACTION OF STEP COMPLETED  0.300    
 STEP TIME COMPLETED       0.300    ,  TOTAL TIME COMPLETED        0.300    


  INCREMENT     7 STARTS. ATTEMPT NUMBER  1, TIME INCREMENT  5.000E-02

  NUMBER OF EQUATIONS =      1419     NUMBER OF RHS =    1
  NUMBER OF FLOATING PT. OPERATIONS =  9.98E+06

  USING THE DIRECT SOLVER WITH  42 PROCESSORS

     CHECK POINT   START OF SOLVER    

     CHECK POINT  END OF SOLVER       

       ELAPSED USER TIME (SEC)      =  0.28000    
       ELAPSED SYSTEM TIME (SEC)    =  9.00000E-02
       ELAPSED TOTAL CPU TIME (SEC) =  0.37000    
       ELAPSED WALLCLOCK TIME (SEC) =          1

               CONVERGENCE CHECKS FOR EQUILIBRIUM ITERATION     1


 AVERAGE FORCE                       7.86       TIME AVG. FORCE        4.96    
 ALL FORCE     RESIDUALS ARE ZERO
 LARGEST INCREMENT OF DISP.         1.407E-02   AT NODE        989   DOF  3
 LARGEST CORRECTION TO DISP.       -7.882E-06   AT NODE        989   DOF  2
          THE FORCE     EQUILIBRIUM RESPONSE WAS LINEAR IN THIS INCREMENT

 AVERAGE MOMENT                      0.00       TIME AVG. MOMENT       5.56    
                                                (FROM FORCE     FIELD)
 ALL MOMENT    RESIDUALS ARE ZERO
 LARGEST INCREMENT OF ROTATION      6.000E-04   AT NODE        134   DOF  4
 LARGEST CORRECTION TO ROTATION     1.301E-18   AT NODE        134   DOF  4
          THERE IS ZERO MOMENT    EVERYWHERE

 ITERATION SUMMARY FOR THE INCREMENT:   1 TOTAL ITERATIONS, OF WHICH
   0 ARE SEVERE DISCONTINUITY ITERATIONS AND  1 ARE EQUILIBRIUM ITERATIONS.

 TIME INCREMENT COMPLETED  5.000E-02,  FRACTION OF STEP COMPLETED  0.350    
 STEP TIME COMPLETED       0.350    ,  TOTAL TIME COMPLETED        0.350    


  INCREMENT     8 STARTS. ATTEMPT NUMBER  1, TIME INCREMENT  5.000E-02

  NUMBER OF EQUATIONS =      1419     NUMBER OF RHS =    1
  NUMBER OF FLOATING PT. OPERATIONS =  9.98E+06

  USING THE DIRECT SOLVER WITH  42 PROCESSORS

     CHECK POINT   START OF SOLVER    

     CHECK POINT  END OF SOLVER       

       ELAPSED USER TIME (SEC)      =  0.26000    
       ELAPSED SYSTEM TIME (SEC)    =  0.10000    
       ELAPSED TOTAL CPU TIME (SEC) =  0.36000    
       ELAPSED WALLCLOCK TIME (SEC) =          0

               CONVERGENCE CHECKS FOR EQUILIBRIUM ITERATION     1


 AVERAGE FORCE                       8.78       TIME AVG. FORCE        5.44    
 ALL FORCE     RESIDUALS ARE ZERO
 LARGEST INCREMENT OF DISP.         1.407E-02   AT NODE        989   DOF  3
 LARGEST CORRECTION TO DISP.       -7.883E-06   AT NODE        989   DOF  2
          THE FORCE     EQUILIBRIUM RESPONSE WAS LINEAR IN THIS INCREMENT

 AVERAGE MOMENT                      0.00       TIME AVG. MOMENT       6.15    
                                                (FROM FORCE     FIELD)
 ALL MOMENT    RESIDUALS ARE ZERO
 LARGEST INCREMENT OF ROTATION      6.000E-04   AT NODE        134   DOF  4
 LARGEST CORRECTION TO ROTATION    -1.735E-18   AT NODE        134   DOF  4
          THERE IS ZERO MOMENT    EVERYWHERE

 ITERATION SUMMARY FOR THE INCREMENT:   1 TOTAL ITERATIONS, OF WHICH
   0 ARE SEVERE DISCONTINUITY ITERATIONS AND  1 ARE EQUILIBRIUM ITERATIONS.

 TIME INCREMENT COMPLETED  5.000E-02,  FRACTION OF STEP COMPLETED  0.400    
 STEP TIME COMPLETED       0.400    ,  TOTAL TIME COMPLETED        0.400    


  INCREMENT     9 STARTS. ATTEMPT NUMBER  1, TIME INCREMENT  5.000E-02

  NUMBER OF EQUATIONS =      1419     NUMBER OF RHS =    1
  NUMBER OF FLOATING PT. OPERATIONS =  9.98E+06

  USING THE DIRECT SOLVER WITH  42 PROCESSORS

     CHECK POINT   START OF SOLVER    

     CHECK POINT  END OF SOLVER       

       ELAPSED USER TIME (SEC)      =  0.26000    
       ELAPSED SYSTEM TIME (SEC)    =  8.00000E-02
       ELAPSED TOTAL CPU TIME (SEC) =  0.34000    
       ELAPSED WALLCLOCK TIME (SEC) =          0

               CONVERGENCE CHECKS FOR EQUILIBRIUM ITERATION     1


 AVERAGE FORCE                       9.68       TIME AVG. FORCE        5.91    
 ALL FORCE     RESIDUALS ARE ZERO
 LARGEST INCREMENT OF DISP.         1.407E-02   AT NODE        989   DOF  3
 LARGEST CORRECTION TO DISP.       -7.884E-06   AT NODE        989   DOF  2
          THE FORCE     EQUILIBRIUM RESPONSE WAS LINEAR IN THIS INCREMENT

 AVERAGE MOMENT                      0.00       TIME AVG. MOMENT       6.75    
                                                (FROM FORCE     FIELD)
 ALL MOMENT    RESIDUALS ARE ZERO
 LARGEST INCREMENT OF ROTATION      6.000E-04   AT NODE        134   DOF  4
 LARGEST CORRECTION TO ROTATION     8.674E-19   AT NODE        134   DOF  4
          THERE IS ZERO MOMENT    EVERYWHERE

 ITERATION SUMMARY FOR THE INCREMENT:   1 TOTAL ITERATIONS, OF WHICH
   0 ARE SEVERE DISCONTINUITY ITERATIONS AND  1 ARE EQUILIBRIUM ITERATIONS.

 TIME INCREMENT COMPLETED  5.000E-02,  FRACTION OF STEP COMPLETED  0.450    
 STEP TIME COMPLETED       0.450    ,  TOTAL TIME COMPLETED        0.450    


  INCREMENT    10 STARTS. ATTEMPT NUMBER  1, TIME INCREMENT  5.000E-02

  NUMBER OF EQUATIONS =      1419     NUMBER OF RHS =    1
  NUMBER OF FLOATING PT. OPERATIONS =  9.98E+06

  USING THE DIRECT SOLVER WITH  42 PROCESSORS

     CHECK POINT   START OF SOLVER    

     CHECK POINT  END OF SOLVER       

       ELAPSED USER TIME (SEC)      =  0.34000    
       ELAPSED SYSTEM TIME (SEC)    =  5.00000E-02
       ELAPSED TOTAL CPU TIME (SEC) =  0.39000    
       ELAPSED WALLCLOCK TIME (SEC) =          0

               CONVERGENCE CHECKS FOR EQUILIBRIUM ITERATION     1


 AVERAGE FORCE                       10.6       TIME AVG. FORCE        6.38    
 ALL FORCE     RESIDUALS ARE ZERO
 LARGEST INCREMENT OF DISP.         1.407E-02   AT NODE        989   DOF  3
 LARGEST CORRECTION TO DISP.       -7.884E-06   AT NODE        989   DOF  2
          THE FORCE     EQUILIBRIUM RESPONSE WAS LINEAR IN THIS INCREMENT

 AVERAGE MOMENT                      0.00       TIME AVG. MOMENT       7.33    
                                                (FROM FORCE     FIELD)
 ALL MOMENT    RESIDUALS ARE ZERO
 LARGEST INCREMENT OF ROTATION      6.000E-04   AT NODE        134   DOF  4
 LARGEST CORRECTION TO ROTATION    -2.956E-31   AT NODE        134   DOF  4
          THERE IS ZERO MOMENT    EVERYWHERE

 ITERATION SUMMARY FOR THE INCREMENT:   1 TOTAL ITERATIONS, OF WHICH
   0 ARE SEVERE DISCONTINUITY ITERATIONS AND  1 ARE EQUILIBRIUM ITERATIONS.

 TIME INCREMENT COMPLETED  5.000E-02,  FRACTION OF STEP COMPLETED  0.500    
 STEP TIME COMPLETED       0.500    ,  TOTAL TIME COMPLETED        0.500    


  INCREMENT    11 STARTS. ATTEMPT NUMBER  1, TIME INCREMENT  5.000E-02

  NUMBER OF EQUATIONS =      1419     NUMBER OF RHS =    1
  NUMBER OF FLOATING PT. OPERATIONS =  9.98E+06

  USING THE DIRECT SOLVER WITH  42 PROCESSORS

     CHECK POINT   START OF SOLVER    

     CHECK POINT  END OF SOLVER       

       ELAPSED USER TIME (SEC)      =  0.26000    
       ELAPSED SYSTEM TIME (SEC)    =  7.00000E-02
       ELAPSED TOTAL CPU TIME (SEC) =  0.33000    
       ELAPSED WALLCLOCK TIME (SEC) =          0

               CONVERGENCE CHECKS FOR EQUILIBRIUM ITERATION     1


 AVERAGE FORCE                       11.5       TIME AVG. FORCE        6.84    
 ALL FORCE     RESIDUALS ARE ZERO
 LARGEST INCREMENT OF DISP.         1.407E-02   AT NODE        989   DOF  3
 LARGEST CORRECTION TO DISP.       -7.885E-06   AT NODE        989   DOF  2
          THE FORCE     EQUILIBRIUM RESPONSE WAS LINEAR IN THIS INCREMENT

 AVERAGE MOMENT                      0.00       TIME AVG. MOMENT       7.91    
                                                (FROM FORCE     FIELD)
 ALL MOMENT    RESIDUALS ARE ZERO
 LARGEST INCREMENT OF ROTATION      6.000E-04   AT NODE        134   DOF  4
 LARGEST CORRECTION TO ROTATION     8.674E-19   AT NODE        134   DOF  5
          THERE IS ZERO MOMENT    EVERYWHERE

 ITERATION SUMMARY FOR THE INCREMENT:   1 TOTAL ITERATIONS, OF WHICH
   0 ARE SEVERE DISCONTINUITY ITERATIONS AND  1 ARE EQUILIBRIUM ITERATIONS.

 TIME INCREMENT COMPLETED  5.000E-02,  FRACTION OF STEP COMPLETED  0.550    
 STEP TIME COMPLETED       0.550    ,  TOTAL TIME COMPLETED        0.550    


  INCREMENT    12 STARTS. ATTEMPT NUMBER  1, TIME INCREMENT  5.000E-02

  NUMBER OF EQUATIONS =      1419     NUMBER OF RHS =    1
  NUMBER OF FLOATING PT. OPERATIONS =  9.98E+06

  USING THE DIRECT SOLVER WITH  42 PROCESSORS

     CHECK POINT   START OF SOLVER    

     CHECK POINT  END OF SOLVER       

       ELAPSED USER TIME (SEC)      =  0.24000    
       ELAPSED SYSTEM TIME (SEC)    =  9.00000E-02
       ELAPSED TOTAL CPU TIME (SEC) =  0.33000    
       ELAPSED WALLCLOCK TIME (SEC) =          0

               CONVERGENCE CHECKS FOR EQUILIBRIUM ITERATION     1


 AVERAGE FORCE                       12.4       TIME AVG. FORCE        7.31    
 ALL FORCE     RESIDUALS ARE ZERO
 LARGEST INCREMENT OF DISP.         1.407E-02   AT NODE        989   DOF  3
 LARGEST CORRECTION TO DISP.       -7.886E-06   AT NODE        989   DOF  2
          THE FORCE     EQUILIBRIUM RESPONSE WAS LINEAR IN THIS INCREMENT

 AVERAGE MOMENT                      0.00       TIME AVG. MOMENT       8.49    
                                                (FROM FORCE     FIELD)
 ALL MOMENT    RESIDUALS ARE ZERO
 LARGEST INCREMENT OF ROTATION      6.000E-04   AT NODE        134   DOF  4
 LARGEST CORRECTION TO ROTATION     8.674E-19   AT NODE        134   DOF  4
          THERE IS ZERO MOMENT    EVERYWHERE

 ITERATION SUMMARY FOR THE INCREMENT:   1 TOTAL ITERATIONS, OF WHICH
   0 ARE SEVERE DISCONTINUITY ITERATIONS AND  1 ARE EQUILIBRIUM ITERATIONS.

 TIME INCREMENT COMPLETED  5.000E-02,  FRACTION OF STEP COMPLETED  0.600    
 STEP TIME COMPLETED       0.600    ,  TOTAL TIME COMPLETED        0.600    


  INCREMENT    13 STARTS. ATTEMPT NUMBER  1, TIME INCREMENT  5.000E-02

  NUMBER OF EQUATIONS =      1419     NUMBER OF RHS =    1
  NUMBER OF FLOATING PT. OPERATIONS =  9.98E+06

  USING THE DIRECT SOLVER WITH  42 PROCESSORS

     CHECK POINT   START OF SOLVER    

     CHECK POINT  END OF SOLVER       

       ELAPSED USER TIME (SEC)      =  0.24000    
       ELAPSED SYSTEM TIME (SEC)    =  0.10000    
       ELAPSED TOTAL CPU TIME (SEC) =  0.34000    
       ELAPSED WALLCLOCK TIME (SEC) =          0

               CONVERGENCE CHECKS FOR EQUILIBRIUM ITERATION     1


 AVERAGE FORCE                       13.3       TIME AVG. FORCE        7.77    
 ALL FORCE     RESIDUALS ARE ZERO
 LARGEST INCREMENT OF DISP.         1.407E-02   AT NODE        989   DOF  3
 LARGEST CORRECTION TO DISP.       -7.887E-06   AT NODE        989   DOF  2
          THE FORCE     EQUILIBRIUM RESPONSE WAS LINEAR IN THIS INCREMENT

 AVERAGE MOMENT                      0.00       TIME AVG. MOMENT       9.06    
                                                (FROM FORCE     FIELD)
 ALL MOMENT    RESIDUALS ARE ZERO
 LARGEST INCREMENT OF ROTATION      6.000E-04   AT NODE        134   DOF  4
 LARGEST CORRECTION TO ROTATION    -3.774E-31   AT NODE        134   DOF  4
          THERE IS ZERO MOMENT    EVERYWHERE

 ITERATION SUMMARY FOR THE INCREMENT:   1 TOTAL ITERATIONS, OF WHICH
   0 ARE SEVERE DISCONTINUITY ITERATIONS AND  1 ARE EQUILIBRIUM ITERATIONS.

 TIME INCREMENT COMPLETED  5.000E-02,  FRACTION OF STEP COMPLETED  0.650    
 STEP TIME COMPLETED       0.650    ,  TOTAL TIME COMPLETED        0.650    


  INCREMENT    14 STARTS. ATTEMPT NUMBER  1, TIME INCREMENT  5.000E-02

  NUMBER OF EQUATIONS =      1419     NUMBER OF RHS =    1
  NUMBER OF FLOATING PT. OPERATIONS =  9.98E+06

  USING THE DIRECT SOLVER WITH  42 PROCESSORS

     CHECK POINT   START OF SOLVER    

     CHECK POINT  END OF SOLVER       

       ELAPSED USER TIME (SEC)      =  0.30000    
       ELAPSED SYSTEM TIME (SEC)    =  6.00000E-02
       ELAPSED TOTAL CPU TIME (SEC) =  0.36000    
       ELAPSED WALLCLOCK TIME (SEC) =          0

               CONVERGENCE CHECKS FOR EQUILIBRIUM ITERATION     1


 AVERAGE FORCE                       14.2       TIME AVG. FORCE        8.23    
 ALL FORCE     RESIDUALS ARE ZERO
 LARGEST INCREMENT OF DISP.         1.407E-02   AT NODE        989   DOF  3
 LARGEST CORRECTION TO DISP.       -7.888E-06   AT NODE        989   DOF  2
          THE FORCE     EQUILIBRIUM RESPONSE WAS LINEAR IN THIS INCREMENT

 AVERAGE MOMENT                      0.00       TIME AVG. MOMENT       9.64    
                                                (FROM FORCE     FIELD)
 ALL MOMENT    RESIDUALS ARE ZERO
 LARGEST INCREMENT OF ROTATION      6.000E-04   AT NODE        134   DOF  4
 LARGEST CORRECTION TO ROTATION    -8.674E-19   AT NODE        134   DOF  4
          THERE IS ZERO MOMENT    EVERYWHERE

 ITERATION SUMMARY FOR THE INCREMENT:   1 TOTAL ITERATIONS, OF WHICH
   0 ARE SEVERE DISCONTINUITY ITERATIONS AND  1 ARE EQUILIBRIUM ITERATIONS.

 TIME INCREMENT COMPLETED  5.000E-02,  FRACTION OF STEP COMPLETED  0.700    
 STEP TIME COMPLETED       0.700    ,  TOTAL TIME COMPLETED        0.700    


  INCREMENT    15 STARTS. ATTEMPT NUMBER  1, TIME INCREMENT  5.000E-02

  NUMBER OF EQUATIONS =      1419     NUMBER OF RHS =    1
  NUMBER OF FLOATING PT. OPERATIONS =  9.98E+06

  USING THE DIRECT SOLVER WITH  42 PROCESSORS

     CHECK POINT   START OF SOLVER    

     CHECK POINT  END OF SOLVER       

       ELAPSED USER TIME (SEC)      =  0.22000    
       ELAPSED SYSTEM TIME (SEC)    =  0.12000    
       ELAPSED TOTAL CPU TIME (SEC) =  0.34000    
       ELAPSED WALLCLOCK TIME (SEC) =          1

               CONVERGENCE CHECKS FOR EQUILIBRIUM ITERATION     1


 AVERAGE FORCE                       15.1       TIME AVG. FORCE        8.68    
 ALL FORCE     RESIDUALS ARE ZERO
 LARGEST INCREMENT OF DISP.         1.407E-02   AT NODE        989   DOF  3
 LARGEST CORRECTION TO DISP.       -7.888E-06   AT NODE        989   DOF  2
          THE FORCE     EQUILIBRIUM RESPONSE WAS LINEAR IN THIS INCREMENT

 AVERAGE MOMENT                      0.00       TIME AVG. MOMENT       10.2    
                                                (FROM FORCE     FIELD)
 ALL MOMENT    RESIDUALS ARE ZERO
 LARGEST INCREMENT OF ROTATION      6.000E-04   AT NODE        134   DOF  4
 LARGEST CORRECTION TO ROTATION    -8.674E-19   AT NODE        134   DOF  4
          THERE IS ZERO MOMENT    EVERYWHERE

 ITERATION SUMMARY FOR THE INCREMENT:   1 TOTAL ITERATIONS, OF WHICH
   0 ARE SEVERE DISCONTINUITY ITERATIONS AND  1 ARE EQUILIBRIUM ITERATIONS.

 TIME INCREMENT COMPLETED  5.000E-02,  FRACTION OF STEP COMPLETED  0.750    
 STEP TIME COMPLETED       0.750    ,  TOTAL TIME COMPLETED        0.750    


  INCREMENT    16 STARTS. ATTEMPT NUMBER  1, TIME INCREMENT  5.000E-02

  NUMBER OF EQUATIONS =      1419     NUMBER OF RHS =    1
  NUMBER OF FLOATING PT. OPERATIONS =  9.98E+06

  USING THE DIRECT SOLVER WITH  42 PROCESSORS

     CHECK POINT   START OF SOLVER    

     CHECK POINT  END OF SOLVER       

       ELAPSED USER TIME (SEC)      =  0.28000    
       ELAPSED SYSTEM TIME (SEC)    =  6.00000E-02
       ELAPSED TOTAL CPU TIME (SEC) =  0.34000    
       ELAPSED WALLCLOCK TIME (SEC) =          0

               CONVERGENCE CHECKS FOR EQUILIBRIUM ITERATION     1


 AVERAGE FORCE                       16.0       TIME AVG. FORCE        9.14    
 ALL FORCE     RESIDUALS ARE ZERO
 LARGEST INCREMENT OF DISP.         1.407E-02   AT NODE        989   DOF  3
 LARGEST CORRECTION TO DISP.       -7.889E-06   AT NODE        989   DOF  2
          THE FORCE     EQUILIBRIUM RESPONSE WAS LINEAR IN THIS INCREMENT

 AVERAGE MOMENT                      0.00       TIME AVG. MOMENT       10.8    
                                                (FROM FORCE     FIELD)
 ALL MOMENT    RESIDUALS ARE ZERO
 LARGEST INCREMENT OF ROTATION      6.000E-04   AT NODE        134   DOF  4
 LARGEST CORRECTION TO ROTATION     8.674E-19   AT NODE        134   DOF  5
          THERE IS ZERO MOMENT    EVERYWHERE

 ITERATION SUMMARY FOR THE INCREMENT:   1 TOTAL ITERATIONS, OF WHICH
   0 ARE SEVERE DISCONTINUITY ITERATIONS AND  1 ARE EQUILIBRIUM ITERATIONS.

 TIME INCREMENT COMPLETED  5.000E-02,  FRACTION OF STEP COMPLETED  0.800    
 STEP TIME COMPLETED       0.800    ,  TOTAL TIME COMPLETED        0.800    


  INCREMENT    17 STARTS. ATTEMPT NUMBER  1, TIME INCREMENT  5.000E-02

  NUMBER OF EQUATIONS =      1419     NUMBER OF RHS =    1
  NUMBER OF FLOATING PT. OPERATIONS =  9.98E+06

  USING THE DIRECT SOLVER WITH  42 PROCESSORS

     CHECK POINT   START OF SOLVER    

     CHECK POINT  END OF SOLVER       

       ELAPSED USER TIME (SEC)      =  0.21000    
       ELAPSED SYSTEM TIME (SEC)    =  0.10000    
       ELAPSED TOTAL CPU TIME (SEC) =  0.31000    
       ELAPSED WALLCLOCK TIME (SEC) =          0

               CONVERGENCE CHECKS FOR EQUILIBRIUM ITERATION     1


 AVERAGE FORCE                       16.9       TIME AVG. FORCE        9.60    
 ALL FORCE     RESIDUALS ARE ZERO
 LARGEST INCREMENT OF DISP.         1.407E-02   AT NODE        989   DOF  3
 LARGEST CORRECTION TO DISP.       -7.890E-06   AT NODE        989   DOF  2
          THE FORCE     EQUILIBRIUM RESPONSE WAS LINEAR IN THIS INCREMENT

 AVERAGE MOMENT                      0.00       TIME AVG. MOMENT       11.3    
                                                (FROM FORCE     FIELD)
 ALL MOMENT    RESIDUALS ARE ZERO
 LARGEST INCREMENT OF ROTATION      6.000E-04   AT NODE        134   DOF  4
 LARGEST CORRECTION TO ROTATION     1.735E-18   AT NODE        134   DOF  4
          THERE IS ZERO MOMENT    EVERYWHERE

 ITERATION SUMMARY FOR THE INCREMENT:   1 TOTAL ITERATIONS, OF WHICH
   0 ARE SEVERE DISCONTINUITY ITERATIONS AND  1 ARE EQUILIBRIUM ITERATIONS.

 TIME INCREMENT COMPLETED  5.000E-02,  FRACTION OF STEP COMPLETED  0.850    
 STEP TIME COMPLETED       0.850    ,  TOTAL TIME COMPLETED        0.850    


  INCREMENT    18 STARTS. ATTEMPT NUMBER  1, TIME INCREMENT  5.000E-02

  NUMBER OF EQUATIONS =      1419     NUMBER OF RHS =    1
  NUMBER OF FLOATING PT. OPERATIONS =  9.98E+06

  USING THE DIRECT SOLVER WITH  42 PROCESSORS

     CHECK POINT   START OF SOLVER    

     CHECK POINT  END OF SOLVER       

       ELAPSED USER TIME (SEC)      =  0.21000    
       ELAPSED SYSTEM TIME (SEC)    =  0.11000    
       ELAPSED TOTAL CPU TIME (SEC) =  0.32000    
       ELAPSED WALLCLOCK TIME (SEC) =          0

               CONVERGENCE CHECKS FOR EQUILIBRIUM ITERATION     1


 AVERAGE FORCE                       17.8       TIME AVG. FORCE        10.0    
 ALL FORCE     RESIDUALS ARE ZERO
 LARGEST INCREMENT OF DISP.         1.407E-02   AT NODE        989   DOF  3
 LARGEST CORRECTION TO DISP.       -7.891E-06   AT NODE        989   DOF  2
          THE FORCE     EQUILIBRIUM RESPONSE WAS LINEAR IN THIS INCREMENT

 AVERAGE MOMENT                      0.00       TIME AVG. MOMENT       11.9    
                                                (FROM FORCE     FIELD)
 ALL MOMENT    RESIDUALS ARE ZERO
 LARGEST INCREMENT OF ROTATION      6.000E-04   AT NODE        134   DOF  4
 LARGEST CORRECTION TO ROTATION    -5.166E-31   AT NODE        134   DOF  4
          THERE IS ZERO MOMENT    EVERYWHERE

 ITERATION SUMMARY FOR THE INCREMENT:   1 TOTAL ITERATIONS, OF WHICH
   0 ARE SEVERE DISCONTINUITY ITERATIONS AND  1 ARE EQUILIBRIUM ITERATIONS.

 TIME INCREMENT COMPLETED  5.000E-02,  FRACTION OF STEP COMPLETED  0.900    
 STEP TIME COMPLETED       0.900    ,  TOTAL TIME COMPLETED        0.900    


  INCREMENT    19 STARTS. ATTEMPT NUMBER  1, TIME INCREMENT  5.000E-02

  NUMBER OF EQUATIONS =      1419     NUMBER OF RHS =    1
  NUMBER OF FLOATING PT. OPERATIONS =  9.98E+06

  USING THE DIRECT SOLVER WITH  42 PROCESSORS

     CHECK POINT   START OF SOLVER    

     CHECK POINT  END OF SOLVER       

       ELAPSED USER TIME (SEC)      =  0.27000    
       ELAPSED SYSTEM TIME (SEC)    =  7.00000E-02
       ELAPSED TOTAL CPU TIME (SEC) =  0.34000    
       ELAPSED WALLCLOCK TIME (SEC) =          0

               CONVERGENCE CHECKS FOR EQUILIBRIUM ITERATION     1


 AVERAGE FORCE                       18.6       TIME AVG. FORCE        10.5    
 ALL FORCE     RESIDUALS ARE ZERO
 LARGEST INCREMENT OF DISP.         1.407E-02   AT NODE        989   DOF  3
 LARGEST CORRECTION TO DISP.       -7.892E-06   AT NODE        989   DOF  2
          THE FORCE     EQUILIBRIUM RESPONSE WAS LINEAR IN THIS INCREMENT

 AVERAGE MOMENT                      0.00       TIME AVG. MOMENT       12.5    
                                                (FROM FORCE     FIELD)
 ALL MOMENT    RESIDUALS ARE ZERO
 LARGEST INCREMENT OF ROTATION      6.000E-04   AT NODE        134   DOF  4
 LARGEST CORRECTION TO ROTATION    -1.735E-18   AT NODE        134   DOF  4
          THERE IS ZERO MOMENT    EVERYWHERE

 ITERATION SUMMARY FOR THE INCREMENT:   1 TOTAL ITERATIONS, OF WHICH
   0 ARE SEVERE DISCONTINUITY ITERATIONS AND  1 ARE EQUILIBRIUM ITERATIONS.

 TIME INCREMENT COMPLETED  5.000E-02,  FRACTION OF STEP COMPLETED  0.950    
 STEP TIME COMPLETED       0.950    ,  TOTAL TIME COMPLETED        0.950    


  INCREMENT    20 STARTS. ATTEMPT NUMBER  1, TIME INCREMENT  5.000E-02

  NUMBER OF EQUATIONS =      1419     NUMBER OF RHS =    1
  NUMBER OF FLOATING PT. OPERATIONS =  9.98E+06

  USING THE DIRECT SOLVER WITH  42 PROCESSORS

     CHECK POINT   START OF SOLVER    

     CHECK POINT  END OF SOLVER       

       ELAPSED USER TIME (SEC)      =  0.18000    
       ELAPSED SYSTEM TIME (SEC)    =  0.15000    
       ELAPSED TOTAL CPU TIME (SEC) =  0.33000    
       ELAPSED WALLCLOCK TIME (SEC) =          0

               CONVERGENCE CHECKS FOR EQUILIBRIUM ITERATION     1


 AVERAGE FORCE                       19.5       TIME AVG. FORCE        11.0    
 ALL FORCE     RESIDUALS ARE ZERO
 LARGEST INCREMENT OF DISP.         1.407E-02   AT NODE        989   DOF  3
 LARGEST CORRECTION TO DISP.       -7.892E-06   AT NODE        989   DOF  2
          THE FORCE     EQUILIBRIUM RESPONSE WAS LINEAR IN THIS INCREMENT

 AVERAGE MOMENT                      0.00       TIME AVG. MOMENT       13.0    
                                                (FROM FORCE     FIELD)
 ALL MOMENT    RESIDUALS ARE ZERO
 LARGEST INCREMENT OF ROTATION      6.000E-04   AT NODE        134   DOF  4
 LARGEST CORRECTION TO ROTATION    -2.277E-18   AT NODE        134   DOF  5
          THERE IS ZERO MOMENT    EVERYWHERE

 ITERATION SUMMARY FOR THE INCREMENT:   1 TOTAL ITERATIONS, OF WHICH
   0 ARE SEVERE DISCONTINUITY ITERATIONS AND  1 ARE EQUILIBRIUM ITERATIONS.

 TIME INCREMENT COMPLETED  5.000E-02,  FRACTION OF STEP COMPLETED   1.00    
 STEP TIME COMPLETED        1.00    ,  TOTAL TIME COMPLETED         1.00    
1

   Abaqus 2021                                  Date 22-Feb-2023   Time 19:07:48
   For use by UNIVERSITAET BERN under license from Dassault Systemes or its subsidiary.

                                                                                 
                                                                                 
 STEP    2     INCREMENT     1     STEP TIME    0.00    


                        S T E P       2     S T A T I C   A N A L Y S I S


                                                                                          

     AUTOMATIC TIME CONTROL WITH -
          A SUGGESTED INITIAL TIME INCREMENT OF                5.000E-02
          AND A TOTAL TIME PERIOD OF                            1.00    
          THE MINIMUM TIME INCREMENT ALLOWED IS                5.000E-05
          THE MAXIMUM TIME INCREMENT ALLOWED IS                5.000E-02

     LINEAR EQUATION SOLVER TYPE         DIRECT SPARSE

 CONVERGENCE TOLERANCE PARAMETERS FOR FORCE    
     CRITERION FOR RESIDUAL FORCE     FOR A NONLINEAR PROBLEM          5.000E-03
     CRITERION FOR DISP.    CORRECTION IN A NONLINEAR PROBLEM          1.000E-02
     INIT. VALUE OF TIME AVG. FORCE     IS TIME AVG. FORCE     IN PREVIOUS STEP
     AVERAGE FORCE     IS TIME AVERAGE FORCE    
     ALTERNATE CRIT. FOR RESIDUAL FORCE     FOR A NONLINEAR PROBLEM    2.000E-02
     CRITERION FOR ZERO FORCE     RELATIVE TO TIME AVRG. FORCE         1.000E-05
     CRITERION FOR RESIDUAL FORCE     WHEN THERE IS ZERO FLUX          1.000E-05
     CRITERION FOR DISP.    CORRECTION WHEN THERE IS ZERO FLUX         1.000E-03
     CRITERION FOR RESIDUAL FORCE     FOR A LINEAR INCREMENT           1.000E-08
     FIELD CONVERSION RATIO                                             1.00    
     CRITERION FOR ZERO FORCE     REL. TO TIME AVRG. MAX. FORCE        1.000E-05
     CRITERION FOR ZERO DISP.    RELATIVE TO CHARACTERISTIC LENGTH     1.000E-08

 CONVERGENCE TOLERANCE PARAMETERS FOR MOMENT   
     CRITERION FOR RESIDUAL MOMENT    FOR A NONLINEAR PROBLEM          5.000E-03
     CRITERION FOR ROTATION CORRECTION IN A NONLINEAR PROBLEM          1.000E-02
     INIT. VALUE OF TIME AVG. MOMENT    IS TIME AVG. MOMENT    IN PREVIOUS STEP
     AVERAGE MOMENT    IS TIME AVERAGE MOMENT   
     ALTERNATE CRIT. FOR RESIDUAL MOMENT    FOR A NONLINEAR PROBLEM    2.000E-02
     CRITERION FOR ZERO MOMENT    RELATIVE TO TIME AVRG. MOMENT        1.000E-05
     CRITERION FOR RESIDUAL MOMENT    WHEN THERE IS ZERO FLUX          1.000E-05
     CRITERION FOR ROTATION CORRECTION WHEN THERE IS ZERO FLUX         1.000E-03
     CRITERION FOR RESIDUAL MOMENT    FOR A LINEAR INCREMENT           1.000E-08
     FIELD CONVERSION RATIO                                             1.00    
     CRITERION FOR ZERO MOMENT    REL. TO TIME AVRG. MAX. MOMENT       1.000E-05

     VOLUMETRIC STRAIN COMPATIBILITY TOLERANCE FOR HYBRID SOLIDS       1.000E-05
     AXIAL STRAIN COMPATIBILITY TOLERANCE FOR HYBRID BEAMS             1.000E-05
     TRANS. SHEAR STRAIN COMPATIBILITY TOLERANCE FOR HYBRID BEAMS      1.000E-05
     SOFT CONTACT CONSTRAINT COMPATIBILITY TOLERANCE FOR P>P0          5.000E-03
     SOFT CONTACT CONSTRAINT COMPATIBILITY TOLERANCE FOR P=0.0         0.100    
     CONTACT FORCE ERROR TOLERANCE FOR CONVERT SDI=YES                 1.00    
     DISPLACEMENT COMPATIBILITY TOLERANCE FOR DCOUP ELEMENTS           1.000E-05
     ROTATION COMPATIBILITY TOLERANCE FOR DCOUP ELEMENTS               1.000E-05

 EQUILIBRIUM WILL BE CHECKED FOR SEVERE DISCONTINUITY ITERATIONS

 TIME INCREMENTATION CONTROL PARAMETERS:
     FIRST EQUILIBRIUM ITERATION FOR CONSECUTIVE DIVERGENCE CHECK              4
     EQUILIBRIUM ITERATION AT WHICH LOG. CONVERGENCE RATE CHECK BEGINS         8
     EQUILIBRIUM ITERATION AFTER WHICH ALTERNATE RESIDUAL IS USED              9
     MAXIMUM EQUILIBRIUM ITERATIONS ALLOWED                                   16
     EQUILIBRIUM ITERATION COUNT FOR CUT-BACK IN NEXT INCREMENT               10
     MAXIMUM EQUILIB. ITERS IN TWO INCREMENTS FOR TIME INCREMENT INCREASE      4
     MAXIMUM ITERATIONS FOR SEVERE DISCONTINUITIES                            50
     MAXIMUM ATTEMPTS ALLOWED IN AN INCREMENT                                  5
     MAXIMUM DISCON. ITERS IN TWO INCREMENTS FOR TIME INCREMENT INCREASE      50
     MAXIMUM CONTACT AUGMENTATIONS FOR *SURFACE BEHAVIOR,AUGMENTED LAGRANGE   50
     CUT-BACK FACTOR AFTER DIVERGENCE                                 0.2500    
     CUT-BACK FACTOR FOR TOO SLOW CONVERGENCE                         0.5000    
     CUT-BACK FACTOR AFTER TOO MANY EQUILIBRIUM ITERATIONS            0.7500    
     CUT-BACK FACTOR AFTER TOO MANY SEVERE DISCONTINUITY ITERATIONS   0.2500    
     CUT-BACK FACTOR AFTER PROBLEMS IN ELEMENT ASSEMBLY               0.2500    
     INCREASE FACTOR AFTER TWO INCREMENTS THAT CONVERGE QUICKLY        1.500    
     MAX. TIME INCREMENT INCREASE FACTOR ALLOWED                       1.500    
     MAX. TIME INCREMENT INCREASE FACTOR ALLOWED (DYNAMICS)            1.250    
     MAX. TIME INCREMENT INCREASE FACTOR ALLOWED (DIFFUSION)           2.000    
     MINIMUM TIME INCREMENT RATIO FOR EXTRAPOLATION TO OCCUR          0.1000    
     MAX. RATIO OF TIME INCREMENT TO STABILITY LIMIT                   1.000    
     FRACTION OF STABILITY LIMIT FOR NEW TIME INCREMENT               0.9500    
     TIME INCREMENT INCREASE FACTOR BEFORE A TIME POINT                1.000    
     GLOBAL STABILIZATION CONTROL IS NOT USED

          PRINT OF INCREMENT NUMBER, TIME, ETC., EVERY    1  INCREMENTS

     THE MAXIMUM NUMBER OF INCREMENTS IN THIS STEP IS                    1000

          LARGE DISPLACEMENT THEORY WILL BE USED

          UNSYMMETRIC MATRIX STORAGE AND SOLUTION WILL BE USED

     LINEAR EXTRAPOLATION WILL BE USED

     CHARACTERISTIC ELEMENT LENGTH      1.24    

     DETAILS REGARDING ACTUAL SOLUTION WAVEFRONT REQUESTED

     DETAILED OUTPUT OF DIAGNOSTICS TO DATABASE REQUESTED

     PRINT OF INCREMENT NUMBER, TIME, ETC., TO THE MESSAGE FILE EVERY     1  INCREMENTS

     ELEMENT OPERATIONS WILL BE CARRIED OUT IN PARALLEL USING  42 PROCESSORS

     COLLECTING STEP CONSTRAINT INFORMATION FOR OVERCONSTRAINT CHECKS


  INCREMENT     1 STARTS. ATTEMPT NUMBER  1, TIME INCREMENT  5.000E-02
 
     INITIAL ELEMENT LOAD BALANCE
            PROCESS    1   THREAD     NUMBER OF ELEMENTS
                              1            10
                              2            14
                              3            10
                              4            10
                              5            10
                              6            10
                              7            10
                              8            10
                              9            10
                             10            10
                             11            10
                             12            10
                             13            10
                             14            10
                             15            10
                             16            10
                             17            10
                             18            10
                             19            10
                             20            10
                             21            10
                             22            10
                             23            10
                             24            10
                             25            10
                             26            10
                             27            10
                             28            10
                             29            10
                             30            10
                             31            10
                             32            10
                             33            10
                             34            10
                             35            10
                             36            10
                             37            10
                             38            10
                             39            10
                             40            10
                             41            10
                             42            10

  NUMBER OF EQUATIONS =      1419     NUMBER OF RHS =    1
  NUMBER OF FLOATING PT. OPERATIONS =  9.98E+06

  USING THE DIRECT SOLVER WITH  42 PROCESSORS

     CHECK POINT   START OF SOLVER    

     CHECK POINT  END OF SOLVER       

       ELAPSED USER TIME (SEC)      =  0.31000    
       ELAPSED SYSTEM TIME (SEC)    =  0.10000    
       ELAPSED TOTAL CPU TIME (SEC) =  0.41000    
       ELAPSED WALLCLOCK TIME (SEC) =          0

               CONVERGENCE CHECKS FOR EQUILIBRIUM ITERATION     1


 AVERAGE FORCE                       18.9       TIME AVG. FORCE        18.9    
 ALL FORCE     RESIDUALS ARE ZERO
 LARGEST INCREMENT OF DISP.         1.568E-02   AT NODE        169   DOF  3
 LARGEST CORRECTION TO DISP.        1.568E-02   AT NODE        169   DOF  3
          THE FORCE     EQUILIBRIUM RESPONSE WAS LINEAR IN THIS INCREMENT

 AVERAGE MOMENT                      0.00       TIME AVG. MOMENT       23.4    
                                                (FROM FORCE     FIELD)
 ALL MOMENT    RESIDUALS ARE ZERO
 LARGEST INCREMENT OF ROTATION     -7.500E-04   AT NODE        134   DOF  4
 LARGEST CORRECTION TO ROTATION    -7.500E-04   AT NODE        134   DOF  4
          THERE IS ZERO MOMENT    EVERYWHERE

 ITERATION SUMMARY FOR THE INCREMENT:   1 TOTAL ITERATIONS, OF WHICH
   0 ARE SEVERE DISCONTINUITY ITERATIONS AND  1 ARE EQUILIBRIUM ITERATIONS.

 TIME INCREMENT COMPLETED  5.000E-02,  FRACTION OF STEP COMPLETED  5.000E-02
 STEP TIME COMPLETED       5.000E-02,  TOTAL TIME COMPLETED         1.05    


  INCREMENT     2 STARTS. ATTEMPT NUMBER  1, TIME INCREMENT  5.000E-02

  NUMBER OF EQUATIONS =      1419     NUMBER OF RHS =    1
  NUMBER OF FLOATING PT. OPERATIONS =  9.98E+06

  USING THE DIRECT SOLVER WITH  42 PROCESSORS

     CHECK POINT   START OF SOLVER    

     CHECK POINT  END OF SOLVER       

       ELAPSED USER TIME (SEC)      =  0.20000    
       ELAPSED SYSTEM TIME (SEC)    =  0.11000    
       ELAPSED TOTAL CPU TIME (SEC) =  0.31000    
       ELAPSED WALLCLOCK TIME (SEC) =          0

               CONVERGENCE CHECKS FOR EQUILIBRIUM ITERATION     1


 AVERAGE FORCE                       18.8       TIME AVG. FORCE        18.8    
 ALL FORCE     RESIDUALS ARE ZERO
 LARGEST INCREMENT OF DISP.         1.568E-02   AT NODE        169   DOF  3
 LARGEST CORRECTION TO DISP.        1.180E-05   AT NODE        169   DOF  2
          THE FORCE     EQUILIBRIUM RESPONSE WAS LINEAR IN THIS INCREMENT

 AVERAGE MOMENT                      0.00       TIME AVG. MOMENT       23.4    
                                                (FROM FORCE     FIELD)
 ALL MOMENT    RESIDUALS ARE ZERO
 LARGEST INCREMENT OF ROTATION     -7.500E-04   AT NODE        134   DOF  4
 LARGEST CORRECTION TO ROTATION    -4.802E-31   AT NODE        134   DOF  4
          THERE IS ZERO MOMENT    EVERYWHERE

 ITERATION SUMMARY FOR THE INCREMENT:   1 TOTAL ITERATIONS, OF WHICH
   0 ARE SEVERE DISCONTINUITY ITERATIONS AND  1 ARE EQUILIBRIUM ITERATIONS.

 TIME INCREMENT COMPLETED  5.000E-02,  FRACTION OF STEP COMPLETED  0.100    
 STEP TIME COMPLETED       0.100    ,  TOTAL TIME COMPLETED         1.10    


  INCREMENT     3 STARTS. ATTEMPT NUMBER  1, TIME INCREMENT  5.000E-02

  NUMBER OF EQUATIONS =      1419     NUMBER OF RHS =    1
  NUMBER OF FLOATING PT. OPERATIONS =  9.98E+06

  USING THE DIRECT SOLVER WITH  42 PROCESSORS

     CHECK POINT   START OF SOLVER    

     CHECK POINT  END OF SOLVER       

       ELAPSED USER TIME (SEC)      =  0.32000    
       ELAPSED SYSTEM TIME (SEC)    =  5.00000E-02
       ELAPSED TOTAL CPU TIME (SEC) =  0.37000    
       ELAPSED WALLCLOCK TIME (SEC) =          0

               CONVERGENCE CHECKS FOR EQUILIBRIUM ITERATION     1


 AVERAGE FORCE                       18.4       TIME AVG. FORCE        18.7    
 ALL FORCE     RESIDUALS ARE ZERO
 LARGEST INCREMENT OF DISP.         1.568E-02   AT NODE        169   DOF  3
 LARGEST CORRECTION TO DISP.        1.180E-05   AT NODE        169   DOF  2
          THE FORCE     EQUILIBRIUM RESPONSE WAS LINEAR IN THIS INCREMENT

 AVERAGE MOMENT                      0.00       TIME AVG. MOMENT       23.4    
                                                (FROM FORCE     FIELD)
 ALL MOMENT    RESIDUALS ARE ZERO
 LARGEST INCREMENT OF ROTATION     -7.500E-04   AT NODE        134   DOF  4
 LARGEST CORRECTION TO ROTATION    -4.337E-19   AT NODE        134   DOF  6
          THERE IS ZERO MOMENT    EVERYWHERE

 ITERATION SUMMARY FOR THE INCREMENT:   1 TOTAL ITERATIONS, OF WHICH
   0 ARE SEVERE DISCONTINUITY ITERATIONS AND  1 ARE EQUILIBRIUM ITERATIONS.

 TIME INCREMENT COMPLETED  5.000E-02,  FRACTION OF STEP COMPLETED  0.150    
 STEP TIME COMPLETED       0.150    ,  TOTAL TIME COMPLETED         1.15    


  INCREMENT     4 STARTS. ATTEMPT NUMBER  1, TIME INCREMENT  5.000E-02

  NUMBER OF EQUATIONS =      1419     NUMBER OF RHS =    1
  NUMBER OF FLOATING PT. OPERATIONS =  9.98E+06

  USING THE DIRECT SOLVER WITH  42 PROCESSORS

     CHECK POINT   START OF SOLVER    

     CHECK POINT  END OF SOLVER       

       ELAPSED USER TIME (SEC)      =  0.25000    
       ELAPSED SYSTEM TIME (SEC)    =  6.00000E-02
       ELAPSED TOTAL CPU TIME (SEC) =  0.31000    
       ELAPSED WALLCLOCK TIME (SEC) =          0

               CONVERGENCE CHECKS FOR EQUILIBRIUM ITERATION     1


 AVERAGE FORCE                       18.1       TIME AVG. FORCE        18.5    
 ALL FORCE     RESIDUALS ARE ZERO
 LARGEST INCREMENT OF DISP.         1.568E-02   AT NODE        169   DOF  3
 LARGEST CORRECTION TO DISP.        1.180E-05   AT NODE        169   DOF  2
          THE FORCE     EQUILIBRIUM RESPONSE WAS LINEAR IN THIS INCREMENT

 AVERAGE MOMENT                      0.00       TIME AVG. MOMENT       23.2    
                                                (FROM FORCE     FIELD)
 ALL MOMENT    RESIDUALS ARE ZERO
 LARGEST INCREMENT OF ROTATION     -7.500E-04   AT NODE        134   DOF  4
 LARGEST CORRECTION TO ROTATION     8.674E-19   AT NODE        134   DOF  6
          THERE IS ZERO MOMENT    EVERYWHERE

 ITERATION SUMMARY FOR THE INCREMENT:   1 TOTAL ITERATIONS, OF WHICH
   0 ARE SEVERE DISCONTINUITY ITERATIONS AND  1 ARE EQUILIBRIUM ITERATIONS.

 TIME INCREMENT COMPLETED  5.000E-02,  FRACTION OF STEP COMPLETED  0.200    
 STEP TIME COMPLETED       0.200    ,  TOTAL TIME COMPLETED         1.20    


  INCREMENT     5 STARTS. ATTEMPT NUMBER  1, TIME INCREMENT  5.000E-02

  NUMBER OF EQUATIONS =      1419     NUMBER OF RHS =    1
  NUMBER OF FLOATING PT. OPERATIONS =  9.98E+06

  USING THE DIRECT SOLVER WITH  42 PROCESSORS

     CHECK POINT   START OF SOLVER    

     CHECK POINT  END OF SOLVER       

       ELAPSED USER TIME (SEC)      =  0.28000    
       ELAPSED SYSTEM TIME (SEC)    =  5.00000E-02
       ELAPSED TOTAL CPU TIME (SEC) =  0.33000    
       ELAPSED WALLCLOCK TIME (SEC) =          0

               CONVERGENCE CHECKS FOR EQUILIBRIUM ITERATION     1


 AVERAGE FORCE                       17.9       TIME AVG. FORCE        18.4    
 ALL FORCE     RESIDUALS ARE ZERO
 LARGEST INCREMENT OF DISP.         1.568E-02   AT NODE        169   DOF  3
 LARGEST CORRECTION TO DISP.        1.180E-05   AT NODE        169   DOF  2
          THE FORCE     EQUILIBRIUM RESPONSE WAS LINEAR IN THIS INCREMENT

 AVERAGE MOMENT                      0.00       TIME AVG. MOMENT       23.0    
                                                (FROM FORCE     FIELD)
 ALL MOMENT    RESIDUALS ARE ZERO
 LARGEST INCREMENT OF ROTATION     -7.500E-04   AT NODE        134   DOF  4
 LARGEST CORRECTION TO ROTATION    -4.337E-19   AT NODE        134   DOF  6
          THERE IS ZERO MOMENT    EVERYWHERE

 ITERATION SUMMARY FOR THE INCREMENT:   1 TOTAL ITERATIONS, OF WHICH
   0 ARE SEVERE DISCONTINUITY ITERATIONS AND  1 ARE EQUILIBRIUM ITERATIONS.

 TIME INCREMENT COMPLETED  5.000E-02,  FRACTION OF STEP COMPLETED  0.250    
 STEP TIME COMPLETED       0.250    ,  TOTAL TIME COMPLETED         1.25    


  INCREMENT     6 STARTS. ATTEMPT NUMBER  1, TIME INCREMENT  5.000E-02

  NUMBER OF EQUATIONS =      1419     NUMBER OF RHS =    1
  NUMBER OF FLOATING PT. OPERATIONS =  9.98E+06

  USING THE DIRECT SOLVER WITH  42 PROCESSORS

     CHECK POINT   START OF SOLVER    

     CHECK POINT  END OF SOLVER       

       ELAPSED USER TIME (SEC)      =  0.54000    
       ELAPSED SYSTEM TIME (SEC)    =  2.00000E-02
       ELAPSED TOTAL CPU TIME (SEC) =  0.56000    
       ELAPSED WALLCLOCK TIME (SEC) =          0

               CONVERGENCE CHECKS FOR EQUILIBRIUM ITERATION     1


 AVERAGE FORCE                       17.6       TIME AVG. FORCE        18.3    
 ALL FORCE     RESIDUALS ARE ZERO
 LARGEST INCREMENT OF DISP.         1.568E-02   AT NODE        169   DOF  3
 LARGEST CORRECTION TO DISP.        1.180E-05   AT NODE        169   DOF  2
          THE FORCE     EQUILIBRIUM RESPONSE WAS LINEAR IN THIS INCREMENT

 AVERAGE MOMENT                      0.00       TIME AVG. MOMENT       22.8    
                                                (FROM FORCE     FIELD)
 ALL MOMENT    RESIDUALS ARE ZERO
 LARGEST INCREMENT OF ROTATION     -7.500E-04   AT NODE        134   DOF  4
 LARGEST CORRECTION TO ROTATION    -1.735E-18   AT NODE        134   DOF  5
          THERE IS ZERO MOMENT    EVERYWHERE

 ITERATION SUMMARY FOR THE INCREMENT:   1 TOTAL ITERATIONS, OF WHICH
   0 ARE SEVERE DISCONTINUITY ITERATIONS AND  1 ARE EQUILIBRIUM ITERATIONS.

 TIME INCREMENT COMPLETED  5.000E-02,  FRACTION OF STEP COMPLETED  0.300    
 STEP TIME COMPLETED       0.300    ,  TOTAL TIME COMPLETED         1.30    


  INCREMENT     7 STARTS. ATTEMPT NUMBER  1, TIME INCREMENT  5.000E-02

  NUMBER OF EQUATIONS =      1419     NUMBER OF RHS =    1
  NUMBER OF FLOATING PT. OPERATIONS =  9.98E+06

  USING THE DIRECT SOLVER WITH  42 PROCESSORS

     CHECK POINT   START OF SOLVER    

     CHECK POINT  END OF SOLVER       

       ELAPSED USER TIME (SEC)      =  0.22000    
       ELAPSED SYSTEM TIME (SEC)    =  0.11000    
       ELAPSED TOTAL CPU TIME (SEC) =  0.33000    
       ELAPSED WALLCLOCK TIME (SEC) =          0

               CONVERGENCE CHECKS FOR EQUILIBRIUM ITERATION     1


 AVERAGE FORCE                       17.4       TIME AVG. FORCE        18.2    
 ALL FORCE     RESIDUALS ARE ZERO
 LARGEST INCREMENT OF DISP.         1.568E-02   AT NODE        169   DOF  3
 LARGEST CORRECTION TO DISP.        1.180E-05   AT NODE        169   DOF  2
          THE FORCE     EQUILIBRIUM RESPONSE WAS LINEAR IN THIS INCREMENT

 AVERAGE MOMENT                      0.00       TIME AVG. MOMENT       22.7    
                                                (FROM FORCE     FIELD)
 ALL MOMENT    RESIDUALS ARE ZERO
 LARGEST INCREMENT OF ROTATION     -7.500E-04   AT NODE        134   DOF  4
 LARGEST CORRECTION TO ROTATION     3.469E-18   AT NODE        134   DOF  5
          THERE IS ZERO MOMENT    EVERYWHERE

 ITERATION SUMMARY FOR THE INCREMENT:   1 TOTAL ITERATIONS, OF WHICH
   0 ARE SEVERE DISCONTINUITY ITERATIONS AND  1 ARE EQUILIBRIUM ITERATIONS.

 TIME INCREMENT COMPLETED  5.000E-02,  FRACTION OF STEP COMPLETED  0.350    
 STEP TIME COMPLETED       0.350    ,  TOTAL TIME COMPLETED         1.35    


  INCREMENT     8 STARTS. ATTEMPT NUMBER  1, TIME INCREMENT  5.000E-02

  NUMBER OF EQUATIONS =      1419     NUMBER OF RHS =    1
  NUMBER OF FLOATING PT. OPERATIONS =  9.98E+06

  USING THE DIRECT SOLVER WITH  42 PROCESSORS

     CHECK POINT   START OF SOLVER    

     CHECK POINT  END OF SOLVER       

       ELAPSED USER TIME (SEC)      =  0.31000    
       ELAPSED SYSTEM TIME (SEC)    =  4.00000E-02
       ELAPSED TOTAL CPU TIME (SEC) =  0.35000    
       ELAPSED WALLCLOCK TIME (SEC) =          0

               CONVERGENCE CHECKS FOR EQUILIBRIUM ITERATION     1


 AVERAGE FORCE                       17.3       TIME AVG. FORCE        18.1    
 ALL FORCE     RESIDUALS ARE ZERO
 LARGEST INCREMENT OF DISP.         1.568E-02   AT NODE        169   DOF  3
 LARGEST CORRECTION TO DISP.        1.180E-05   AT NODE        169   DOF  2
          THE FORCE     EQUILIBRIUM RESPONSE WAS LINEAR IN THIS INCREMENT

 AVERAGE MOMENT                      0.00       TIME AVG. MOMENT       22.5    
                                                (FROM FORCE     FIELD)
 ALL MOMENT    RESIDUALS ARE ZERO
 LARGEST INCREMENT OF ROTATION     -7.500E-04   AT NODE        134   DOF  4
 LARGEST CORRECTION TO ROTATION    -1.735E-18   AT NODE        134   DOF  5
          THERE IS ZERO MOMENT    EVERYWHERE

 ITERATION SUMMARY FOR THE INCREMENT:   1 TOTAL ITERATIONS, OF WHICH
   0 ARE SEVERE DISCONTINUITY ITERATIONS AND  1 ARE EQUILIBRIUM ITERATIONS.

 TIME INCREMENT COMPLETED  5.000E-02,  FRACTION OF STEP COMPLETED  0.400    
 STEP TIME COMPLETED       0.400    ,  TOTAL TIME COMPLETED         1.40    


  INCREMENT     9 STARTS. ATTEMPT NUMBER  1, TIME INCREMENT  5.000E-02

  NUMBER OF EQUATIONS =      1419     NUMBER OF RHS =    1
  NUMBER OF FLOATING PT. OPERATIONS =  9.98E+06

  USING THE DIRECT SOLVER WITH  42 PROCESSORS

     CHECK POINT   START OF SOLVER    

     CHECK POINT  END OF SOLVER       

       ELAPSED USER TIME (SEC)      =  0.26000    
       ELAPSED SYSTEM TIME (SEC)    =  7.00000E-02
       ELAPSED TOTAL CPU TIME (SEC) =  0.33000    
       ELAPSED WALLCLOCK TIME (SEC) =          0

               CONVERGENCE CHECKS FOR EQUILIBRIUM ITERATION     1


 AVERAGE FORCE                       17.3       TIME AVG. FORCE        18.0    
 ALL FORCE     RESIDUALS ARE ZERO
 LARGEST INCREMENT OF DISP.         1.568E-02   AT NODE        169   DOF  3
 LARGEST CORRECTION TO DISP.        1.180E-05   AT NODE        169   DOF  2
          THE FORCE     EQUILIBRIUM RESPONSE WAS LINEAR IN THIS INCREMENT

 AVERAGE MOMENT                      0.00       TIME AVG. MOMENT       22.4    
                                                (FROM FORCE     FIELD)
 ALL MOMENT    RESIDUALS ARE ZERO
 LARGEST INCREMENT OF ROTATION     -7.500E-04   AT NODE        134   DOF  4
 LARGEST CORRECTION TO ROTATION     7.589E-19   AT NODE        134   DOF  4
          THERE IS ZERO MOMENT    EVERYWHERE

 ITERATION SUMMARY FOR THE INCREMENT:   1 TOTAL ITERATIONS, OF WHICH
   0 ARE SEVERE DISCONTINUITY ITERATIONS AND  1 ARE EQUILIBRIUM ITERATIONS.

 TIME INCREMENT COMPLETED  5.000E-02,  FRACTION OF STEP COMPLETED  0.450    
 STEP TIME COMPLETED       0.450    ,  TOTAL TIME COMPLETED         1.45    


  INCREMENT    10 STARTS. ATTEMPT NUMBER  1, TIME INCREMENT  5.000E-02

  NUMBER OF EQUATIONS =      1419     NUMBER OF RHS =    1
  NUMBER OF FLOATING PT. OPERATIONS =  9.98E+06

  USING THE DIRECT SOLVER WITH  42 PROCESSORS

     CHECK POINT   START OF SOLVER    

     CHECK POINT  END OF SOLVER       

       ELAPSED USER TIME (SEC)      =  0.25000    
       ELAPSED SYSTEM TIME (SEC)    =  9.00000E-02
       ELAPSED TOTAL CPU TIME (SEC) =  0.34000    
       ELAPSED WALLCLOCK TIME (SEC) =          0

               CONVERGENCE CHECKS FOR EQUILIBRIUM ITERATION     1


 AVERAGE FORCE                       17.2       TIME AVG. FORCE        17.9    
 ALL FORCE     RESIDUALS ARE ZERO
 LARGEST INCREMENT OF DISP.         1.568E-02   AT NODE        169   DOF  3
 LARGEST CORRECTION TO DISP.        1.180E-05   AT NODE        169   DOF  2
          THE FORCE     EQUILIBRIUM RESPONSE WAS LINEAR IN THIS INCREMENT

 AVERAGE MOMENT                      0.00       TIME AVG. MOMENT       22.3    
                                                (FROM FORCE     FIELD)
 ALL MOMENT    RESIDUALS ARE ZERO
 LARGEST INCREMENT OF ROTATION     -7.500E-04   AT NODE        134   DOF  4
 LARGEST CORRECTION TO ROTATION    -1.735E-18   AT NODE        134   DOF  5
          THERE IS ZERO MOMENT    EVERYWHERE

 ITERATION SUMMARY FOR THE INCREMENT:   1 TOTAL ITERATIONS, OF WHICH
   0 ARE SEVERE DISCONTINUITY ITERATIONS AND  1 ARE EQUILIBRIUM ITERATIONS.

 TIME INCREMENT COMPLETED  5.000E-02,  FRACTION OF STEP COMPLETED  0.500    
 STEP TIME COMPLETED       0.500    ,  TOTAL TIME COMPLETED         1.50    


  INCREMENT    11 STARTS. ATTEMPT NUMBER  1, TIME INCREMENT  5.000E-02

  NUMBER OF EQUATIONS =      1419     NUMBER OF RHS =    1
  NUMBER OF FLOATING PT. OPERATIONS =  9.98E+06

  USING THE DIRECT SOLVER WITH  42 PROCESSORS

     CHECK POINT   START OF SOLVER    

     CHECK POINT  END OF SOLVER       

       ELAPSED USER TIME (SEC)      =  0.30000    
       ELAPSED SYSTEM TIME (SEC)    =  4.00000E-02
       ELAPSED TOTAL CPU TIME (SEC) =  0.34000    
       ELAPSED WALLCLOCK TIME (SEC) =          0

               CONVERGENCE CHECKS FOR EQUILIBRIUM ITERATION     1


 AVERAGE FORCE                       17.2       TIME AVG. FORCE        17.8    
 ALL FORCE     RESIDUALS ARE ZERO
 LARGEST INCREMENT OF DISP.         1.568E-02   AT NODE        169   DOF  3
 LARGEST CORRECTION TO DISP.        1.180E-05   AT NODE        169   DOF  2
          THE FORCE     EQUILIBRIUM RESPONSE WAS LINEAR IN THIS INCREMENT

 AVERAGE MOMENT                      0.00       TIME AVG. MOMENT       22.2    
                                                (FROM FORCE     FIELD)
 ALL MOMENT    RESIDUALS ARE ZERO
 LARGEST INCREMENT OF ROTATION     -7.500E-04   AT NODE        134   DOF  4
 LARGEST CORRECTION TO ROTATION     5.204E-18   AT NODE        134   DOF  5
          THERE IS ZERO MOMENT    EVERYWHERE

 ITERATION SUMMARY FOR THE INCREMENT:   1 TOTAL ITERATIONS, OF WHICH
   0 ARE SEVERE DISCONTINUITY ITERATIONS AND  1 ARE EQUILIBRIUM ITERATIONS.

 TIME INCREMENT COMPLETED  5.000E-02,  FRACTION OF STEP COMPLETED  0.550    
 STEP TIME COMPLETED       0.550    ,  TOTAL TIME COMPLETED         1.55    


  INCREMENT    12 STARTS. ATTEMPT NUMBER  1, TIME INCREMENT  5.000E-02

  NUMBER OF EQUATIONS =      1419     NUMBER OF RHS =    1
  NUMBER OF FLOATING PT. OPERATIONS =  9.98E+06

  USING THE DIRECT SOLVER WITH  42 PROCESSORS

     CHECK POINT   START OF SOLVER    

     CHECK POINT  END OF SOLVER       

       ELAPSED USER TIME (SEC)      =  0.28000    
       ELAPSED SYSTEM TIME (SEC)    =  6.00000E-02
       ELAPSED TOTAL CPU TIME (SEC) =  0.34000    
       ELAPSED WALLCLOCK TIME (SEC) =          0

               CONVERGENCE CHECKS FOR EQUILIBRIUM ITERATION     1


 AVERAGE FORCE                       17.1       TIME AVG. FORCE        17.8    
 ALL FORCE     RESIDUALS ARE ZERO
 LARGEST INCREMENT OF DISP.         1.568E-02   AT NODE        169   DOF  3
 LARGEST CORRECTION TO DISP.        1.180E-05   AT NODE        169   DOF  2
          THE FORCE     EQUILIBRIUM RESPONSE WAS LINEAR IN THIS INCREMENT

 AVERAGE MOMENT                      0.00       TIME AVG. MOMENT       22.1    
                                                (FROM FORCE     FIELD)
 ALL MOMENT    RESIDUALS ARE ZERO
 LARGEST INCREMENT OF ROTATION     -7.500E-04   AT NODE        134   DOF  4
 LARGEST CORRECTION TO ROTATION    -3.469E-18   AT NODE        134   DOF  5
          THERE IS ZERO MOMENT    EVERYWHERE

 ITERATION SUMMARY FOR THE INCREMENT:   1 TOTAL ITERATIONS, OF WHICH
   0 ARE SEVERE DISCONTINUITY ITERATIONS AND  1 ARE EQUILIBRIUM ITERATIONS.

 TIME INCREMENT COMPLETED  5.000E-02,  FRACTION OF STEP COMPLETED  0.600    
 STEP TIME COMPLETED       0.600    ,  TOTAL TIME COMPLETED         1.60    


  INCREMENT    13 STARTS. ATTEMPT NUMBER  1, TIME INCREMENT  5.000E-02

  NUMBER OF EQUATIONS =      1419     NUMBER OF RHS =    1
  NUMBER OF FLOATING PT. OPERATIONS =  9.98E+06

  USING THE DIRECT SOLVER WITH  42 PROCESSORS

     CHECK POINT   START OF SOLVER    

     CHECK POINT  END OF SOLVER       

       ELAPSED USER TIME (SEC)      =  0.20000    
       ELAPSED SYSTEM TIME (SEC)    =  0.11000    
       ELAPSED TOTAL CPU TIME (SEC) =  0.31000    
       ELAPSED WALLCLOCK TIME (SEC) =          0

               CONVERGENCE CHECKS FOR EQUILIBRIUM ITERATION     1


 AVERAGE FORCE                       17.2       TIME AVG. FORCE        17.7    
 ALL FORCE     RESIDUALS ARE ZERO
 LARGEST INCREMENT OF DISP.         1.568E-02   AT NODE        169   DOF  3
 LARGEST CORRECTION TO DISP.        1.180E-05   AT NODE        169   DOF  2
          THE FORCE     EQUILIBRIUM RESPONSE WAS LINEAR IN THIS INCREMENT

 AVERAGE MOMENT                      0.00       TIME AVG. MOMENT       22.0    
                                                (FROM FORCE     FIELD)
 ALL MOMENT    RESIDUALS ARE ZERO
 LARGEST INCREMENT OF ROTATION     -7.500E-04   AT NODE        134   DOF  4
 LARGEST CORRECTION TO ROTATION    -1.084E-19   AT NODE        134   DOF  4
          THERE IS ZERO MOMENT    EVERYWHERE

 ITERATION SUMMARY FOR THE INCREMENT:   1 TOTAL ITERATIONS, OF WHICH
   0 ARE SEVERE DISCONTINUITY ITERATIONS AND  1 ARE EQUILIBRIUM ITERATIONS.

 TIME INCREMENT COMPLETED  5.000E-02,  FRACTION OF STEP COMPLETED  0.650    
 STEP TIME COMPLETED       0.650    ,  TOTAL TIME COMPLETED         1.65    


  INCREMENT    14 STARTS. ATTEMPT NUMBER  1, TIME INCREMENT  5.000E-02

  NUMBER OF EQUATIONS =      1419     NUMBER OF RHS =    1
  NUMBER OF FLOATING PT. OPERATIONS =  9.98E+06

  USING THE DIRECT SOLVER WITH  42 PROCESSORS

     CHECK POINT   START OF SOLVER    

     CHECK POINT  END OF SOLVER       

       ELAPSED USER TIME (SEC)      =  0.26000    
       ELAPSED SYSTEM TIME (SEC)    =  6.00000E-02
       ELAPSED TOTAL CPU TIME (SEC) =  0.32000    
       ELAPSED WALLCLOCK TIME (SEC) =          0

               CONVERGENCE CHECKS FOR EQUILIBRIUM ITERATION     1


 AVERAGE FORCE                       17.3       TIME AVG. FORCE        17.7    
 ALL FORCE     RESIDUALS ARE ZERO
 LARGEST INCREMENT OF DISP.         1.568E-02   AT NODE        169   DOF  3
 LARGEST CORRECTION TO DISP.        1.180E-05   AT NODE        169   DOF  2
          THE FORCE     EQUILIBRIUM RESPONSE WAS LINEAR IN THIS INCREMENT

 AVERAGE MOMENT                      0.00       TIME AVG. MOMENT       22.0    
                                                (FROM FORCE     FIELD)
 ALL MOMENT    RESIDUALS ARE ZERO
 LARGEST INCREMENT OF ROTATION     -7.500E-04   AT NODE        134   DOF  4
 LARGEST CORRECTION TO ROTATION     4.337E-19   AT NODE        134   DOF  4
          THERE IS ZERO MOMENT    EVERYWHERE

 ITERATION SUMMARY FOR THE INCREMENT:   1 TOTAL ITERATIONS, OF WHICH
   0 ARE SEVERE DISCONTINUITY ITERATIONS AND  1 ARE EQUILIBRIUM ITERATIONS.

 TIME INCREMENT COMPLETED  5.000E-02,  FRACTION OF STEP COMPLETED  0.700    
 STEP TIME COMPLETED       0.700    ,  TOTAL TIME COMPLETED         1.70    


  INCREMENT    15 STARTS. ATTEMPT NUMBER  1, TIME INCREMENT  5.000E-02

  NUMBER OF EQUATIONS =      1419     NUMBER OF RHS =    1
  NUMBER OF FLOATING PT. OPERATIONS =  9.98E+06

  USING THE DIRECT SOLVER WITH  42 PROCESSORS

     CHECK POINT   START OF SOLVER    

     CHECK POINT  END OF SOLVER       

       ELAPSED USER TIME (SEC)      =  0.33000    
       ELAPSED SYSTEM TIME (SEC)    =  5.00000E-02
       ELAPSED TOTAL CPU TIME (SEC) =  0.38000    
       ELAPSED WALLCLOCK TIME (SEC) =          0

               CONVERGENCE CHECKS FOR EQUILIBRIUM ITERATION     1


 AVERAGE FORCE                       17.4       TIME AVG. FORCE        17.7    
 ALL FORCE     RESIDUALS ARE ZERO
 LARGEST INCREMENT OF DISP.         1.568E-02   AT NODE        169   DOF  3
 LARGEST CORRECTION TO DISP.        1.180E-05   AT NODE        169   DOF  2
          THE FORCE     EQUILIBRIUM RESPONSE WAS LINEAR IN THIS INCREMENT

 AVERAGE MOMENT                      0.00       TIME AVG. MOMENT       22.0    
                                                (FROM FORCE     FIELD)
 ALL MOMENT    RESIDUALS ARE ZERO
 LARGEST INCREMENT OF ROTATION     -7.500E-04   AT NODE        134   DOF  4
 LARGEST CORRECTION TO ROTATION    -4.188E-31   AT NODE        134   DOF  5
          THERE IS ZERO MOMENT    EVERYWHERE

 ITERATION SUMMARY FOR THE INCREMENT:   1 TOTAL ITERATIONS, OF WHICH
   0 ARE SEVERE DISCONTINUITY ITERATIONS AND  1 ARE EQUILIBRIUM ITERATIONS.

 TIME INCREMENT COMPLETED  5.000E-02,  FRACTION OF STEP COMPLETED  0.750    
 STEP TIME COMPLETED       0.750    ,  TOTAL TIME COMPLETED         1.75    


  INCREMENT    16 STARTS. ATTEMPT NUMBER  1, TIME INCREMENT  5.000E-02

  NUMBER OF EQUATIONS =      1419     NUMBER OF RHS =    1
  NUMBER OF FLOATING PT. OPERATIONS =  9.98E+06

  USING THE DIRECT SOLVER WITH  42 PROCESSORS

     CHECK POINT   START OF SOLVER    

     CHECK POINT  END OF SOLVER       

       ELAPSED USER TIME (SEC)      =  0.28000    
       ELAPSED SYSTEM TIME (SEC)    =  7.00000E-02
       ELAPSED TOTAL CPU TIME (SEC) =  0.35000    
       ELAPSED WALLCLOCK TIME (SEC) =          0

               CONVERGENCE CHECKS FOR EQUILIBRIUM ITERATION     1


 AVERAGE FORCE                       17.5       TIME AVG. FORCE        17.7    
 ALL FORCE     RESIDUALS ARE ZERO
 LARGEST INCREMENT OF DISP.         1.568E-02   AT NODE        169   DOF  3
 LARGEST CORRECTION TO DISP.        1.180E-05   AT NODE        169   DOF  2
          THE FORCE     EQUILIBRIUM RESPONSE WAS LINEAR IN THIS INCREMENT

 AVERAGE MOMENT                      0.00       TIME AVG. MOMENT       21.9    
                                                (FROM FORCE     FIELD)
 ALL MOMENT    RESIDUALS ARE ZERO
 LARGEST INCREMENT OF ROTATION     -7.500E-04   AT NODE        134   DOF  4
 LARGEST CORRECTION TO ROTATION     3.469E-18   AT NODE        134   DOF  5
          THERE IS ZERO MOMENT    EVERYWHERE

 ITERATION SUMMARY FOR THE INCREMENT:   1 TOTAL ITERATIONS, OF WHICH
   0 ARE SEVERE DISCONTINUITY ITERATIONS AND  1 ARE EQUILIBRIUM ITERATIONS.

 TIME INCREMENT COMPLETED  5.000E-02,  FRACTION OF STEP COMPLETED  0.800    
 STEP TIME COMPLETED       0.800    ,  TOTAL TIME COMPLETED         1.80    


  INCREMENT    17 STARTS. ATTEMPT NUMBER  1, TIME INCREMENT  5.000E-02

  NUMBER OF EQUATIONS =      1419     NUMBER OF RHS =    1
  NUMBER OF FLOATING PT. OPERATIONS =  9.98E+06

  USING THE DIRECT SOLVER WITH  42 PROCESSORS

     CHECK POINT   START OF SOLVER    

     CHECK POINT  END OF SOLVER       

       ELAPSED USER TIME (SEC)      =  0.22000    
       ELAPSED SYSTEM TIME (SEC)    =  0.10000    
       ELAPSED TOTAL CPU TIME (SEC) =  0.32000    
       ELAPSED WALLCLOCK TIME (SEC) =          0

               CONVERGENCE CHECKS FOR EQUILIBRIUM ITERATION     1


 AVERAGE FORCE                       17.7       TIME AVG. FORCE        17.7    
 ALL FORCE     RESIDUALS ARE ZERO
 LARGEST INCREMENT OF DISP.         1.568E-02   AT NODE        169   DOF  3
 LARGEST CORRECTION TO DISP.        1.180E-05   AT NODE        169   DOF  2
          THE FORCE     EQUILIBRIUM RESPONSE WAS LINEAR IN THIS INCREMENT

 AVERAGE MOMENT                      0.00       TIME AVG. MOMENT       21.9    
                                                (FROM FORCE     FIELD)
 ALL MOMENT    RESIDUALS ARE ZERO
 LARGEST INCREMENT OF ROTATION     -7.500E-04   AT NODE        134   DOF  4
 LARGEST CORRECTION TO ROTATION    -3.469E-18   AT NODE        134   DOF  5
          THERE IS ZERO MOMENT    EVERYWHERE

 ITERATION SUMMARY FOR THE INCREMENT:   1 TOTAL ITERATIONS, OF WHICH
   0 ARE SEVERE DISCONTINUITY ITERATIONS AND  1 ARE EQUILIBRIUM ITERATIONS.

 TIME INCREMENT COMPLETED  5.000E-02,  FRACTION OF STEP COMPLETED  0.850    
 STEP TIME COMPLETED       0.850    ,  TOTAL TIME COMPLETED         1.85    


  INCREMENT    18 STARTS. ATTEMPT NUMBER  1, TIME INCREMENT  5.000E-02

  NUMBER OF EQUATIONS =      1419     NUMBER OF RHS =    1
  NUMBER OF FLOATING PT. OPERATIONS =  9.98E+06

  USING THE DIRECT SOLVER WITH  42 PROCESSORS

     CHECK POINT   START OF SOLVER    

     CHECK POINT  END OF SOLVER       

       ELAPSED USER TIME (SEC)      =  0.25000    
       ELAPSED SYSTEM TIME (SEC)    =  7.00000E-02
       ELAPSED TOTAL CPU TIME (SEC) =  0.32000    
       ELAPSED WALLCLOCK TIME (SEC) =          0

               CONVERGENCE CHECKS FOR EQUILIBRIUM ITERATION     1


 AVERAGE FORCE                       17.9       TIME AVG. FORCE        17.7    
 ALL FORCE     RESIDUALS ARE ZERO
 LARGEST INCREMENT OF DISP.         1.568E-02   AT NODE        169   DOF  3
 LARGEST CORRECTION TO DISP.        1.180E-05   AT NODE        169   DOF  2
          THE FORCE     EQUILIBRIUM RESPONSE WAS LINEAR IN THIS INCREMENT

 AVERAGE MOMENT                      0.00       TIME AVG. MOMENT       21.9    
                                                (FROM FORCE     FIELD)
 ALL MOMENT    RESIDUALS ARE ZERO
 LARGEST INCREMENT OF ROTATION     -7.500E-04   AT NODE        134   DOF  4
 LARGEST CORRECTION TO ROTATION    -4.323E-19   AT NODE        134   DOF  6
          THERE IS ZERO MOMENT    EVERYWHERE

 ITERATION SUMMARY FOR THE INCREMENT:   1 TOTAL ITERATIONS, OF WHICH
   0 ARE SEVERE DISCONTINUITY ITERATIONS AND  1 ARE EQUILIBRIUM ITERATIONS.

 TIME INCREMENT COMPLETED  5.000E-02,  FRACTION OF STEP COMPLETED  0.900    
 STEP TIME COMPLETED       0.900    ,  TOTAL TIME COMPLETED         1.90    


  INCREMENT    19 STARTS. ATTEMPT NUMBER  1, TIME INCREMENT  5.000E-02

  NUMBER OF EQUATIONS =      1419     NUMBER OF RHS =    1
  NUMBER OF FLOATING PT. OPERATIONS =  9.98E+06

  USING THE DIRECT SOLVER WITH  42 PROCESSORS

     CHECK POINT   START OF SOLVER    

     CHECK POINT  END OF SOLVER       

       ELAPSED USER TIME (SEC)      =  0.27000    
       ELAPSED SYSTEM TIME (SEC)    =  8.00000E-02
       ELAPSED TOTAL CPU TIME (SEC) =  0.35000    
       ELAPSED WALLCLOCK TIME (SEC) =          0

               CONVERGENCE CHECKS FOR EQUILIBRIUM ITERATION     1


 AVERAGE FORCE                       18.1       TIME AVG. FORCE        17.7    
 ALL FORCE     RESIDUALS ARE ZERO
 LARGEST INCREMENT OF DISP.         1.568E-02   AT NODE        169   DOF  3
 LARGEST CORRECTION TO DISP.        1.180E-05   AT NODE        169   DOF  2
          THE FORCE     EQUILIBRIUM RESPONSE WAS LINEAR IN THIS INCREMENT

 AVERAGE MOMENT                      0.00       TIME AVG. MOMENT       21.9    
                                                (FROM FORCE     FIELD)
 ALL MOMENT    RESIDUALS ARE ZERO
 LARGEST INCREMENT OF ROTATION     -7.500E-04   AT NODE        134   DOF  4
 LARGEST CORRECTION TO ROTATION     3.469E-18   AT NODE        134   DOF  5
          THERE IS ZERO MOMENT    EVERYWHERE

 ITERATION SUMMARY FOR THE INCREMENT:   1 TOTAL ITERATIONS, OF WHICH
   0 ARE SEVERE DISCONTINUITY ITERATIONS AND  1 ARE EQUILIBRIUM ITERATIONS.

 TIME INCREMENT COMPLETED  5.000E-02,  FRACTION OF STEP COMPLETED  0.950    
 STEP TIME COMPLETED       0.950    ,  TOTAL TIME COMPLETED         1.95    


  INCREMENT    20 STARTS. ATTEMPT NUMBER  1, TIME INCREMENT  5.000E-02

  NUMBER OF EQUATIONS =      1419     NUMBER OF RHS =    1
  NUMBER OF FLOATING PT. OPERATIONS =  9.98E+06

  USING THE DIRECT SOLVER WITH  42 PROCESSORS

     CHECK POINT   START OF SOLVER    

     CHECK POINT  END OF SOLVER       

       ELAPSED USER TIME (SEC)      =  0.26000    
       ELAPSED SYSTEM TIME (SEC)    =  9.00000E-02
       ELAPSED TOTAL CPU TIME (SEC) =  0.35000    
       ELAPSED WALLCLOCK TIME (SEC) =          0

               CONVERGENCE CHECKS FOR EQUILIBRIUM ITERATION     1


 AVERAGE FORCE                       18.4       TIME AVG. FORCE        17.7    
 ALL FORCE     RESIDUALS ARE ZERO
 LARGEST INCREMENT OF DISP.         1.568E-02   AT NODE        169   DOF  3
[...]
   ELEMENT 240 IS DISTORTING EXCESSIVELY.
   ELEMENT 240 IS DISTORTING EXCESSIVELY.
   ELEMENT 240 IS DISTORTING EXCESSIVELY.
   ELEMENT 240 IS DISTORTING EXCESSIVELY.
   ELEMENT 240 IS DISTORTING EXCESSIVELY.
   ELEMENT 240 IS DISTORTING EXCESSIVELY.
   ELEMENT 240 IS DISTORTING EXCESSIVELY.
   ELEMENT 240 IS DISTORTING EXCESSIVELY.
   ELEMENT 241 IS DISTORTING EXCESSIVELY.
   ELEMENT 202 IS DISTORTING EXCESSIVELY.
   ELEMENT 202 IS DISTORTING EXCESSIVELY.
   ELEMENT 202 IS DISTORTING EXCESSIVELY.
   ELEMENT 202 IS DISTORTING EXCESSIVELY.
   ELEMENT 202 IS DISTORTING EXCESSIVELY.
   ELEMENT 202 IS DISTORTING EXCESSIVELY.
   ELEMENT 202 IS DISTORTING EXCESSIVELY.
   ELEMENT 202 IS DISTORTING EXCESSIVELY.
   ELEMENT 278 IS DISTORTING EXCESSIVELY.
   ELEMENT 278 IS DISTORTING EXCESSIVELY.
   ELEMENT 278 IS DISTORTING EXCESSIVELY.
   ELEMENT 278 IS DISTORTING EXCESSIVELY.
   ELEMENT 278 IS DISTORTING EXCESSIVELY.
   ELEMENT 278 IS DISTORTING EXCESSIVELY.
   ELEMENT 278 IS DISTORTING EXCESSIVELY.
   ELEMENT 278 IS DISTORTING EXCESSIVELY.
   ELEMENT 656 IS DISTORTING EXCESSIVELY.
   ELEMENT 656 IS DISTORTING EXCESSIVELY.
   ELEMENT 656 IS DISTORTING EXCESSIVELY.
   ELEMENT 656 IS DISTORTING EXCESSIVELY.
   ELEMENT 656 IS DISTORTING EXCESSIVELY.
   ELEMENT 656 IS DISTORTING EXCESSIVELY.
   ELEMENT 656 IS DISTORTING EXCESSIVELY.
   ELEMENT 656 IS DISTORTING EXCESSIVELY.
   ELEMENT 657 IS DISTORTING EXCESSIVELY.
   ELEMENT 657 IS DISTORTING EXCESSIVELY.
   ELEMENT 657 IS DISTORTING EXCESSIVELY.
   ELEMENT 657 IS DISTORTING EXCESSIVELY.
   ELEMENT 657 IS DISTORTING EXCESSIVELY.
   ELEMENT 657 IS DISTORTING EXCESSIVELY.
   ELEMENT 657 IS DISTORTING EXCESSIVELY.
   ELEMENT 657 IS DISTORTING EXCESSIVELY.
   ELEMENT 658 IS DISTORTING EXCESSIVELY.
   ELEMENT 658 IS DISTORTING EXCESSIVELY.
   ELEMENT 658 IS DISTORTING EXCESSIVELY.
   ELEMENT 618 IS DISTORTING EXCESSIVELY.
   ELEMENT 618 IS DISTORTING EXCESSIVELY.
   ELEMENT 618 IS DISTORTING EXCESSIVELY.
   ELEMENT 618 IS DISTORTING EXCESSIVELY.
   ELEMENT 618 IS DISTORTING EXCESSIVELY.
   ELEMENT 618 IS DISTORTING EXCESSIVELY.
   ELEMENT 618 IS DISTORTING EXCESSIVELY.
   ELEMENT 618 IS DISTORTING EXCESSIVELY.
   ELEMENT 619 IS DISTORTING EXCESSIVELY.
   ELEMENT 619 IS DISTORTING EXCESSIVELY.
   ELEMENT 619 IS DISTORTING EXCESSIVELY.
   ELEMENT 619 IS DISTORTING EXCESSIVELY.
   ELEMENT 619 IS DISTORTING EXCESSIVELY.
   ELEMENT 619 IS DISTORTING EXCESSIVELY.
   ELEMENT 619 IS DISTORTING EXCESSIVELY.
   ELEMENT 619 IS DISTORTING EXCESSIVELY.
   ELEMENT 620 IS DISTORTING EXCESSIVELY.
   ELEMENT 620 IS DISTORTING EXCESSIVELY.
   ELEMENT 620 IS DISTORTING EXCESSIVELY.
   ELEMENT 620 IS DISTORTING EXCESSIVELY.
   ELEMENT 429 IS DISTORTING EXCESSIVELY.
   ELEMENT 429 IS DISTORTING EXCESSIVELY.
   ELEMENT 429 IS DISTORTING EXCESSIVELY.
   ELEMENT 429 IS DISTORTING EXCESSIVELY.
   ELEMENT 429 IS DISTORTING EXCESSIVELY.
   ELEMENT 429 IS DISTORTING EXCESSIVELY.
   ELEMENT 429 IS DISTORTING EXCESSIVELY.
   ELEMENT 429 IS DISTORTING EXCESSIVELY.
   ELEMENT 430 IS DISTORTING EXCESSIVELY.
   ELEMENT 430 IS DISTORTING EXCESSIVELY.
   ELEMENT 430 IS DISTORTING EXCESSIVELY.
   ELEMENT 430 IS DISTORTING EXCESSIVELY.
   ELEMENT 430 IS DISTORTING EXCESSIVELY.
   ELEMENT 391 IS DISTORTING EXCESSIVELY.
   ELEMENT 391 IS DISTORTING EXCESSIVELY.
   ELEMENT 391 IS DISTORTING EXCESSIVELY.
   ELEMENT 391 IS DISTORTING EXCESSIVELY.
   ELEMENT 391 IS DISTORTING EXCESSIVELY.
   ELEMENT 391 IS DISTORTING EXCESSIVELY.
   ELEMENT 391 IS DISTORTING EXCESSIVELY.
   ELEMENT 391 IS DISTORTING EXCESSIVELY.
   ELEMENT 392 IS DISTORTING EXCESSIVELY.
   ELEMENT 392 IS DISTORTING EXCESSIVELY.
   ELEMENT 392 IS DISTORTING EXCESSIVELY.
   ELEMENT 392 IS DISTORTING EXCESSIVELY.
   ELEMENT 392 IS DISTORTING EXCESSIVELY.
   ELEMENT 392 IS DISTORTING EXCESSIVELY.
   ELEMENT 392 IS DISTORTING EXCESSIVELY.
   ELEMENT 466 IS DISTORTING EXCESSIVELY.
   ELEMENT 466 IS DISTORTING EXCESSIVELY.
   ELEMENT 466 IS DISTORTING EXCESSIVELY.
   ELEMENT 466 IS DISTORTING EXCESSIVELY.
   ELEMENT 466 IS DISTORTING EXCESSIVELY.
   ELEMENT 466 IS DISTORTING EXCESSIVELY.
   ELEMENT 466 IS DISTORTING EXCESSIVELY.
   ELEMENT 466 IS DISTORTING EXCESSIVELY.
   ELEMENT 467 IS DISTORTING EXCESSIVELY.
   ELEMENT 467 IS DISTORTING EXCESSIVELY.
   ELEMENT 467 IS DISTORTING EXCESSIVELY.
   ELEMENT 467 IS DISTORTING EXCESSIVELY.
   ELEMENT 467 IS DISTORTING EXCESSIVELY.
   ELEMENT 467 IS DISTORTING EXCESSIVELY.
   ELEMENT 467 IS DISTORTING EXCESSIVELY.
   ELEMENT 467 IS DISTORTING EXCESSIVELY.
   ELEMENT 468 IS DISTORTING EXCESSIVELY.
   ELEMENT 468 IS DISTORTING EXCESSIVELY.
   ELEMENT 468 IS DISTORTING EXCESSIVELY.
   ELEMENT 468 IS DISTORTING EXCESSIVELY.
   ELEMENT 733 IS DISTORTING EXCESSIVELY.
   ELEMENT 733 IS DISTORTING EXCESSIVELY.
   ELEMENT 733 IS DISTORTING EXCESSIVELY.
   ELEMENT 733 IS DISTORTING EXCESSIVELY.
   ELEMENT 733 IS DISTORTING EXCESSIVELY.
   ELEMENT 733 IS DISTORTING EXCESSIVELY.
   ELEMENT 733 IS DISTORTING EXCESSIVELY.
   ELEMENT 733 IS DISTORTING EXCESSIVELY.
   ELEMENT 165 IS DISTORTING EXCESSIVELY.
   ELEMENT 165 IS DISTORTING EXCESSIVELY.
   ELEMENT 165 IS DISTORTING EXCESSIVELY.
   ELEMENT 165 IS DISTORTING EXCESSIVELY.
   ELEMENT 695 IS DISTORTING EXCESSIVELY.
   ELEMENT 695 IS DISTORTING EXCESSIVELY.
   ELEMENT 695 IS DISTORTING EXCESSIVELY.
   ELEMENT 695 IS DISTORTING EXCESSIVELY.
   ELEMENT 695 IS DISTORTING EXCESSIVELY.
   ELEMENT 695 IS DISTORTING EXCESSIVELY.
   ELEMENT 695 IS DISTORTING EXCESSIVELY.
   ELEMENT 695 IS DISTORTING EXCESSIVELY.
   ELEMENT 542 IS DISTORTING EXCESSIVELY.
   ELEMENT 542 IS DISTORTING EXCESSIVELY.
   ELEMENT 542 IS DISTORTING EXCESSIVELY.
   ELEMENT 542 IS DISTORTING EXCESSIVELY.
   ELEMENT 542 IS DISTORTING EXCESSIVELY.
   ELEMENT 542 IS DISTORTING EXCESSIVELY.
   ELEMENT 542 IS DISTORTING EXCESSIVELY.
   ELEMENT 542 IS DISTORTING EXCESSIVELY.
   ELEMENT 543 IS DISTORTING EXCESSIVELY.
   ELEMENT 543 IS DISTORTING EXCESSIVELY.
   ELEMENT 543 IS DISTORTING EXCESSIVELY.
   ELEMENT 543 IS DISTORTING EXCESSIVELY.
   ELEMENT 543 IS DISTORTING EXCESSIVELY.
   ELEMENT 543 IS DISTORTING EXCESSIVELY.
   ELEMENT 543 IS DISTORTING EXCESSIVELY.
   ELEMENT 543 IS DISTORTING EXCESSIVELY.
   ELEMENT 315 IS DISTORTING EXCESSIVELY.
   ELEMENT 315 IS DISTORTING EXCESSIVELY.
   ELEMENT 315 IS DISTORTING EXCESSIVELY.
   ELEMENT 315 IS DISTORTING EXCESSIVELY.
   ELEMENT 315 IS DISTORTING EXCESSIVELY.
   ELEMENT 315 IS DISTORTING EXCESSIVELY.
   ELEMENT 315 IS DISTORTING EXCESSIVELY.
   ELEMENT 315 IS DISTORTING EXCESSIVELY.
   ELEMENT 316 IS DISTORTING EXCESSIVELY.
   ELEMENT 316 IS DISTORTING EXCESSIVELY.
   ELEMENT 316 IS DISTORTING EXCESSIVELY.
   ELEMENT 316 IS DISTORTING EXCESSIVELY.
   ELEMENT 316 IS DISTORTING EXCESSIVELY.
   ELEMENT 316 IS DISTORTING EXCESSIVELY.
   ELEMENT 316 IS DISTORTING EXCESSIVELY.
   ELEMENT 316 IS DISTORTING EXCESSIVELY.
   ELEMENT 544 IS DISTORTING EXCESSIVELY.
   ELEMENT 544 IS DISTORTING EXCESSIVELY.
   ELEMENT 544 IS DISTORTING EXCESSIVELY.
   ELEMENT 544 IS DISTORTING EXCESSIVELY.
   ELEMENT 504 IS DISTORTING EXCESSIVELY.
   ELEMENT 504 IS DISTORTING EXCESSIVELY.
   ELEMENT 504 IS DISTORTING EXCESSIVELY.
   ELEMENT 504 IS DISTORTING EXCESSIVELY.
   ELEMENT 504 IS DISTORTING EXCESSIVELY.
   ELEMENT 504 IS DISTORTING EXCESSIVELY.
   ELEMENT 504 IS DISTORTING EXCESSIVELY.
   ELEMENT 504 IS DISTORTING EXCESSIVELY.
   ELEMENT 505 IS DISTORTING EXCESSIVELY.
   ELEMENT 505 IS DISTORTING EXCESSIVELY.
   ELEMENT 505 IS DISTORTING EXCESSIVELY.
   ELEMENT 505 IS DISTORTING EXCESSIVELY.
   ELEMENT 505 IS DISTORTING EXCESSIVELY.
   ELEMENT 505 IS DISTORTING EXCESSIVELY.
   ELEMENT 505 IS DISTORTING EXCESSIVELY.
   ELEMENT 505 IS DISTORTING EXCESSIVELY.
   ELEMENT 506 IS DISTORTING EXCESSIVELY.
   ELEMENT 506 IS DISTORTING EXCESSIVELY.
   ELEMENT 506 IS DISTORTING EXCESSIVELY.
   ELEMENT 506 IS DISTORTING EXCESSIVELY.
   ELEMENT 771 IS DISTORTING EXCESSIVELY.
   ELEMENT 771 IS DISTORTING EXCESSIVELY.
   ELEMENT 771 IS DISTORTING EXCESSIVELY.
   ELEMENT 771 IS DISTORTING EXCESSIVELY.
   ELEMENT 771 IS DISTORTING EXCESSIVELY.
   ELEMENT 771 IS DISTORTING EXCESSIVELY.
   ELEMENT 771 IS DISTORTING EXCESSIVELY.
   ELEMENT 771 IS DISTORTING EXCESSIVELY.
   ELEMENT 203 IS DISTORTING EXCESSIVELY.
   ELEMENT 203 IS DISTORTING EXCESSIVELY.
   ELEMENT 203 IS DISTORTING EXCESSIVELY.
   ELEMENT 580 IS DISTORTING EXCESSIVELY.
   ELEMENT 580 IS DISTORTING EXCESSIVELY.
   ELEMENT 580 IS DISTORTING EXCESSIVELY.
   ELEMENT 580 IS DISTORTING EXCESSIVELY.
   ELEMENT 580 IS DISTORTING EXCESSIVELY.
   ELEMENT 580 IS DISTORTING EXCESSIVELY.
   ELEMENT 580 IS DISTORTING EXCESSIVELY.
   ELEMENT 580 IS DISTORTING EXCESSIVELY.
   ELEMENT 581 IS DISTORTING EXCESSIVELY.
   ELEMENT 581 IS DISTORTING EXCESSIVELY.
   ELEMENT 581 IS DISTORTING EXCESSIVELY.
   ELEMENT 581 IS DISTORTING EXCESSIVELY.
   ELEMENT 581 IS DISTORTING EXCESSIVELY.
   ELEMENT 581 IS DISTORTING EXCESSIVELY.
   ELEMENT 581 IS DISTORTING EXCESSIVELY.
   ELEMENT 581 IS DISTORTING EXCESSIVELY.
   ELEMENT 582 IS DISTORTING EXCESSIVELY.
   ELEMENT 582 IS DISTORTING EXCESSIVELY.
   ELEMENT 582 IS DISTORTING EXCESSIVELY.
   ELEMENT 582 IS DISTORTING EXCESSIVELY.


  INCREMENT     3 STARTS. ATTEMPT NUMBER  1, TIME INCREMENT  4.688E-03

  NUMBER OF EQUATIONS =      1419     NUMBER OF RHS =    1
  NUMBER OF FLOATING PT. OPERATIONS =  9.98E+06

  USING THE DIRECT SOLVER WITH  42 PROCESSORS

     CHECK POINT   START OF SOLVER    

     CHECK POINT  END OF SOLVER       

       ELAPSED USER TIME (SEC)      =  0.38000    
       ELAPSED SYSTEM TIME (SEC)    =  6.00000E-02
       ELAPSED TOTAL CPU TIME (SEC) =  0.44000    
       ELAPSED WALLCLOCK TIME (SEC) =          0

               CONVERGENCE CHECKS FOR EQUILIBRIUM ITERATION     1


 AVERAGE FORCE                       139.       TIME AVG. FORCE        108.    
 ALL FORCE     RESIDUALS ARE ZERO
 LARGEST INCREMENT OF DISP.        -4.228E-02   AT NODE        580   DOF  3
 LARGEST CORRECTION TO DISP.       -9.778E-05   AT NODE        580   DOF  1
          THE FORCE     EQUILIBRIUM RESPONSE WAS LINEAR IN THIS INCREMENT

 AVERAGE MOMENT                      0.00       TIME AVG. MOMENT       115.    
                                                (FROM FORCE     FIELD)
 ALL MOMENT    RESIDUALS ARE ZERO
 LARGEST INCREMENT OF ROTATION      2.742E-03   AT NODE        134   DOF  5
 LARGEST CORRECTION TO ROTATION     6.505E-18   AT NODE        134   DOF  5
          THERE IS ZERO MOMENT    EVERYWHERE
          TIME INCREMENT MAY NOW INCREASE TO    7.031E-03

 ITERATION SUMMARY FOR THE INCREMENT:   1 TOTAL ITERATIONS, OF WHICH
   0 ARE SEVERE DISCONTINUITY ITERATIONS AND  1 ARE EQUILIBRIUM ITERATIONS.

 TIME INCREMENT COMPLETED  4.688E-03,  FRACTION OF STEP COMPLETED  5.781E-02
 STEP TIME COMPLETED       5.781E-02,  TOTAL TIME COMPLETED         8.06    


  INCREMENT     4 STARTS. ATTEMPT NUMBER  1, TIME INCREMENT  7.031E-03

 ***WARNING: EXCESSIVE DISTORTION AT A TOTAL OF 15 INTEGRATION POINTS IN SOLID 
             (CONTINUUM) ELEMENTS
 

 ***NOTE: ELEMENTS ARE DISTORTING EXCESSIVELY. CONVERGENCE IS JUDGED UNLIKELY.


  INCREMENT     4 STARTS. ATTEMPT NUMBER  2, TIME INCREMENT  1.758E-03

  NUMBER OF EQUATIONS =      1419     NUMBER OF RHS =    1
  NUMBER OF FLOATING PT. OPERATIONS =  9.98E+06

  USING THE DIRECT SOLVER WITH  42 PROCESSORS

     CHECK POINT   START OF SOLVER    

     CHECK POINT  END OF SOLVER       

       ELAPSED USER TIME (SEC)      =  0.25000    
       ELAPSED SYSTEM TIME (SEC)    =  8.00000E-02
       ELAPSED TOTAL CPU TIME (SEC) =  0.33000    
       ELAPSED WALLCLOCK TIME (SEC) =          0

               CONVERGENCE CHECKS FOR EQUILIBRIUM ITERATION     1


 AVERAGE FORCE                       163.       TIME AVG. FORCE        122.    
 ALL FORCE     RESIDUALS ARE ZERO
 LARGEST INCREMENT OF DISP.        -1.585E-02   AT NODE        580   DOF  3
 LARGEST CORRECTION TO DISP.       -3.025E-05   AT NODE        580   DOF  1
          THE FORCE     EQUILIBRIUM RESPONSE WAS LINEAR IN THIS INCREMENT

 AVERAGE MOMENT                      0.00       TIME AVG. MOMENT       134.    
                                                (FROM FORCE     FIELD)
 ALL MOMENT    RESIDUALS ARE ZERO
 LARGEST INCREMENT OF ROTATION      1.028E-03   AT NODE        134   DOF  5
 LARGEST CORRECTION TO ROTATION    -5.204E-18   AT NODE        134   DOF  5
          THERE IS ZERO MOMENT    EVERYWHERE
          TIME INCREMENT MAY NOW INCREASE TO    2.637E-03

 ITERATION SUMMARY FOR THE INCREMENT:   1 TOTAL ITERATIONS, OF WHICH
   0 ARE SEVERE DISCONTINUITY ITERATIONS AND  1 ARE EQUILIBRIUM ITERATIONS.

 TIME INCREMENT COMPLETED  1.758E-03,  FRACTION OF STEP COMPLETED  5.957E-02
 STEP TIME COMPLETED       5.957E-02,  TOTAL TIME COMPLETED         8.06    
   ELEMENT 580 IS DISTORTING EXCESSIVELY.
   ELEMENT 580 IS DISTORTING EXCESSIVELY.
   ELEMENT 580 IS DISTORTING EXCESSIVELY.
   ELEMENT 504 IS DISTORTING EXCESSIVELY.
   ELEMENT 504 IS DISTORTING EXCESSIVELY.
   ELEMENT 504 IS DISTORTING EXCESSIVELY.
   ELEMENT 504 IS DISTORTING EXCESSIVELY.
   ELEMENT 466 IS DISTORTING EXCESSIVELY.
   ELEMENT 466 IS DISTORTING EXCESSIVELY.
   ELEMENT 466 IS DISTORTING EXCESSIVELY.
   ELEMENT 466 IS DISTORTING EXCESSIVELY.
   ELEMENT 542 IS DISTORTING EXCESSIVELY.
   ELEMENT 542 IS DISTORTING EXCESSIVELY.
   ELEMENT 542 IS DISTORTING EXCESSIVELY.
   ELEMENT 542 IS DISTORTING EXCESSIVELY.


  INCREMENT     5 STARTS. ATTEMPT NUMBER  1, TIME INCREMENT  2.637E-03

 ***WARNING: EXCESSIVE DISTORTION AT A TOTAL OF 6 INTEGRATION POINTS IN SOLID 
             (CONTINUUM) ELEMENTS


  INCREMENT     5 STARTS. ATTEMPT NUMBER  2, TIME INCREMENT  6.592E-04
 

 ***NOTE: ELEMENTS ARE DISTORTING EXCESSIVELY. CONVERGENCE IS JUDGED UNLIKELY.

  NUMBER OF EQUATIONS =      1419     NUMBER OF RHS =    1
  NUMBER OF FLOATING PT. OPERATIONS =  9.98E+06

  USING THE DIRECT SOLVER WITH  42 PROCESSORS

     CHECK POINT   START OF SOLVER    

     CHECK POINT  END OF SOLVER       

       ELAPSED USER TIME (SEC)      =  0.23000    
       ELAPSED SYSTEM TIME (SEC)    =  9.00000E-02
       ELAPSED TOTAL CPU TIME (SEC) =  0.32000    
       ELAPSED WALLCLOCK TIME (SEC) =          0

               CONVERGENCE CHECKS FOR EQUILIBRIUM ITERATION     1


 AVERAGE FORCE                       175.       TIME AVG. FORCE        132.    
 ALL FORCE     RESIDUALS ARE ZERO
 LARGEST INCREMENT OF DISP.        -5.945E-03   AT NODE        580   DOF  3
 LARGEST CORRECTION TO DISP.       -4.253E-06   AT NODE        580   DOF  1
          THE FORCE     EQUILIBRIUM RESPONSE WAS LINEAR IN THIS INCREMENT

 AVERAGE MOMENT                      0.00       TIME AVG. MOMENT       151.    
                                                (FROM FORCE     FIELD)
 ALL MOMENT    RESIDUALS ARE ZERO
 LARGEST INCREMENT OF ROTATION      3.856E-04   AT NODE        134   DOF  5
 LARGEST CORRECTION TO ROTATION     3.303E-19   AT NODE        134   DOF  6
          THERE IS ZERO MOMENT    EVERYWHERE
          TIME INCREMENT MAY NOW INCREASE TO    9.888E-04

 ITERATION SUMMARY FOR THE INCREMENT:   1 TOTAL ITERATIONS, OF WHICH
   0 ARE SEVERE DISCONTINUITY ITERATIONS AND  1 ARE EQUILIBRIUM ITERATIONS.

 TIME INCREMENT COMPLETED  6.592E-04,  FRACTION OF STEP COMPLETED  6.023E-02
 STEP TIME COMPLETED       6.023E-02,  TOTAL TIME COMPLETED         8.06    
   ELEMENT 466 IS DISTORTING EXCESSIVELY.
   ELEMENT 466 IS DISTORTING EXCESSIVELY.
   ELEMENT 466 IS DISTORTING EXCESSIVELY.
   ELEMENT 466 IS DISTORTING EXCESSIVELY.
   ELEMENT 504 IS DISTORTING EXCESSIVELY.
   ELEMENT 504 IS DISTORTING EXCESSIVELY.


  INCREMENT     6 STARTS. ATTEMPT NUMBER  1, TIME INCREMENT  9.888E-04

 ***WARNING: EXCESSIVE DISTORTION AT A TOTAL OF 3 INTEGRATION POINTS IN SOLID 
             (CONTINUUM) ELEMENTS


  INCREMENT     6 STARTS. ATTEMPT NUMBER  2, TIME INCREMENT  2.472E-04
 

 ***NOTE: ELEMENTS ARE DISTORTING EXCESSIVELY. CONVERGENCE IS JUDGED UNLIKELY.

  NUMBER OF EQUATIONS =      1419     NUMBER OF RHS =    1
  NUMBER OF FLOATING PT. OPERATIONS =  9.98E+06

  USING THE DIRECT SOLVER WITH  42 PROCESSORS

     CHECK POINT   START OF SOLVER    

     CHECK POINT  END OF SOLVER       

       ELAPSED USER TIME (SEC)      =  0.26000    
       ELAPSED SYSTEM TIME (SEC)    =  7.00000E-02
       ELAPSED TOTAL CPU TIME (SEC) =  0.33000    
       ELAPSED WALLCLOCK TIME (SEC) =          0

               CONVERGENCE CHECKS FOR EQUILIBRIUM ITERATION     1


 AVERAGE FORCE                       184.       TIME AVG. FORCE        141.    
 ALL FORCE     RESIDUALS ARE ZERO
 LARGEST INCREMENT OF DISP.        -2.229E-03   AT NODE        580   DOF  3
 LARGEST CORRECTION TO DISP.       -5.980E-07   AT NODE        580   DOF  1
          THE FORCE     EQUILIBRIUM RESPONSE WAS LINEAR IN THIS INCREMENT

 AVERAGE MOMENT                      0.00       TIME AVG. MOMENT       164.    
                                                (FROM FORCE     FIELD)
 ALL MOMENT    RESIDUALS ARE ZERO
 LARGEST INCREMENT OF ROTATION      1.446E-04   AT NODE        134   DOF  5
 LARGEST CORRECTION TO ROTATION     1.212E-17   AT NODE        134   DOF  5
          THERE IS ZERO MOMENT    EVERYWHERE
          TIME INCREMENT MAY NOW INCREASE TO    3.708E-04

 ITERATION SUMMARY FOR THE INCREMENT:   1 TOTAL ITERATIONS, OF WHICH
   0 ARE SEVERE DISCONTINUITY ITERATIONS AND  1 ARE EQUILIBRIUM ITERATIONS.

 TIME INCREMENT COMPLETED  2.472E-04,  FRACTION OF STEP COMPLETED  6.048E-02
 STEP TIME COMPLETED       6.048E-02,  TOTAL TIME COMPLETED         8.06    
   ELEMENT 466 IS DISTORTING EXCESSIVELY.
   ELEMENT 466 IS DISTORTING EXCESSIVELY.
   ELEMENT 466 IS DISTORTING EXCESSIVELY.


  INCREMENT     7 STARTS. ATTEMPT NUMBER  1, TIME INCREMENT  3.708E-04

 ***WARNING: EXCESSIVE DISTORTION AT A TOTAL OF 1 INTEGRATION POINTS IN SOLID 
             (CONTINUUM) ELEMENTS


  INCREMENT     7 STARTS. ATTEMPT NUMBER  2, TIME INCREMENT  9.270E-05
 

 ***NOTE: ELEMENTS ARE DISTORTING EXCESSIVELY. CONVERGENCE IS JUDGED UNLIKELY.

 ***WARNING: EXCESSIVE DISTORTION AT A TOTAL OF 1 INTEGRATION POINTS IN SOLID 
             (CONTINUUM) ELEMENTS
 

 ***NOTE: ELEMENTS ARE DISTORTING EXCESSIVELY. CONVERGENCE IS JUDGED UNLIKELY.


  INCREMENT     7 STARTS. ATTEMPT NUMBER  3, TIME INCREMENT  5.000E-05
   ELEMENT 466 IS DISTORTING EXCESSIVELY.

 ***WARNING: EXCESSIVE DISTORTION AT A TOTAL OF 1 INTEGRATION POINTS IN SOLID 
             (CONTINUUM) ELEMENTS
 

 ***NOTE: ELEMENTS ARE DISTORTING EXCESSIVELY. CONVERGENCE IS JUDGED UNLIKELY.
 

 ***ERROR: TIME INCREMENT REQUIRED IS LESS THAN THE MINIMUM SPECIFIED
   ELEMENT 466 IS DISTORTING EXCESSIVELY.
   ELEMENT 466 IS DISTORTING EXCESSIVELY.

 ***ERROR: THE ANALYSIS HAS BEEN TERMINATED DUE TO PREVIOUS ERRORS. ALL OUTPUT 
           REQUESTS HAVE BEEN WRITTEN FOR THE LAST CONVERGED INCREMENT.



     ANALYSIS SUMMARY:
     TOTAL OF        167  INCREMENTS
                       8  CUTBACKS IN AUTOMATIC INCREMENTATION
                     166  ITERATIONS INCLUDING CONTACT ITERATIONS IF PRESENT
                     166  PASSES THROUGH THE EQUATION SOLVER OF WHICH 
                     166  INVOLVE MATRIX DECOMPOSITION, INCLUDING
                       0  DECOMPOSITION(S) OF THE MASS MATRIX
                       1  REORDERING OF EQUATIONS TO MINIMIZE WAVEFRONT
                       0  ADDITIONAL RESIDUAL EVALUATIONS FOR LINE SEARCHES
                       0  ADDITIONAL OPERATOR EVALUATIONS FOR LINE SEARCHES
                     620  WARNING MESSAGES DURING USER INPUT PROCESSING
                       8  WARNING MESSAGES DURING ANALYSIS
                       0  ANALYSIS WARNINGS ARE NUMERICAL PROBLEM MESSAGES
                       0  ANALYSIS WARNINGS ARE NEGATIVE EIGENVALUE MESSAGES
                       2  ERROR MESSAGES



     JOB TIME SUMMARY
       USER TIME (SEC)      =   255.88    
       SYSTEM TIME (SEC)    =   80.780    
       TOTAL CPU TIME (SEC) =   336.66    
       WALLCLOCK TIME (SEC) =         24
