 Abaqus/Standard 2021                  DATE 22-Feb-2023 TIME 19:07:46
 SUMMARY OF JOB INFORMATION:
 STEP  INC ATT SEVERE EQUIL TOTAL  TOTAL      STEP       INC OF       DOF    IF
               DISCON ITERS ITERS  TIME/    TIME/LPF    TIME/LPF    MONITOR RIKS
               ITERS               FREQ
   1     1   1     0     1     1  0.0500     0.0500     0.05000   
   1     2   1     0     1     1  0.100      0.100      0.05000   
   1     3   1     0     1     1  0.150      0.150      0.05000   
   1     4   1     0     1     1  0.200      0.200      0.05000   
   1     5   1     0     1     1  0.250      0.250      0.05000   
   1     6   1     0     1     1  0.300      0.300      0.05000   
   1     7   1     0     1     1  0.350      0.350      0.05000   
   1     8   1     0     1     1  0.400      0.400      0.05000   
   1     9   1     0     1     1  0.450      0.450      0.05000   
   1    10   1     0     1     1  0.500      0.500      0.05000   
   1    11   1     0     1     1  0.550      0.550      0.05000   
   1    12   1     0     1     1  0.600      0.600      0.05000   
   1    13   1     0     1     1  0.650      0.650      0.05000   
   1    14   1     0     1     1  0.700      0.700      0.05000   
   1    15   1     0     1     1  0.750      0.750      0.05000   
   1    16   1     0     1     1  0.800      0.800      0.05000   
   1    17   1     0     1     1  0.850      0.850      0.05000   
   1    18   1     0     1     1  0.900      0.900      0.05000   
   1    19   1     0     1     1  0.950      0.950      0.05000   
   1    20   1     0     1     1  1.00       1.00       0.05000   
   2     1   1     0     1     1  1.05       0.0500     0.05000   
   2     2   1     0     1     1  1.10       0.100      0.05000   
   2     3   1     0     1     1  1.15       0.150      0.05000   
   2     4   1     0     1     1  1.20       0.200      0.05000   
   2     5   1     0     1     1  1.25       0.250      0.05000   
   2     6   1     0     1     1  1.30       0.300      0.05000   
   2     7   1     0     1     1  1.35       0.350      0.05000   
   2     8   1     0     1     1  1.40       0.400      0.05000   
   2     9   1     0     1     1  1.45       0.450      0.05000   
   2    10   1     0     1     1  1.50       0.500      0.05000   
   2    11   1     0     1     1  1.55       0.550      0.05000   
   2    12   1     0     1     1  1.60       0.600      0.05000   
   2    13   1     0     1     1  1.65       0.650      0.05000   
   2    14   1     0     1     1  1.70       0.700      0.05000   
   2    15   1     0     1     1  1.75       0.750      0.05000   
   2    16   1     0     1     1  1.80       0.800      0.05000   
   2    17   1     0     1     1  1.85       0.850      0.05000   
   2    18   1     0     1     1  1.90       0.900      0.05000   
   2    19   1     0     1     1  1.95       0.950      0.05000   
   2    20   1     0     1     1  2.00       1.00       0.05000   
   3     1   1     0     1     1  2.05       0.0500     0.05000   
   3     2   1     0     1     1  2.10       0.100      0.05000   
   3     3   1     0     1     1  2.15       0.150      0.05000   
   3     4   1     0     1     1  2.20       0.200      0.05000   
   3     5   1     0     1     1  2.25       0.250      0.05000   
   3     6   1     0     1     1  2.30       0.300      0.05000   
   3     7   1     0     1     1  2.35       0.350      0.05000   
   3     8   1     0     1     1  2.40       0.400      0.05000   
   3     9   1     0     1     1  2.45       0.450      0.05000   
   3    10   1     0     1     1  2.50       0.500      0.05000   
   3    11   1     0     1     1  2.55       0.550      0.05000   
   3    12   1     0     1     1  2.60       0.600      0.05000   
   3    13   1     0     1     1  2.65       0.650      0.05000   
   3    14   1     0     1     1  2.70       0.700      0.05000   
   3    15   1     0     1     1  2.75       0.750      0.05000   
   3    16   1     0     1     1  2.80       0.800      0.05000   
   3    17   1     0     1     1  2.85       0.850      0.05000   
   3    18   1     0     1     1  2.90       0.900      0.05000   
   3    19   1     0     1     1  2.95       0.950      0.05000   
   3    20   1     0     1     1  3.00       1.00       0.05000   
   4     1   1     0     1     1  3.05       0.0500     0.05000   
   4     2   1     0     1     1  3.10       0.100      0.05000   
   4     3   1     0     1     1  3.15       0.150      0.05000   
   4     4   1     0     1     1  3.20       0.200      0.05000   
   4     5   1     0     1     1  3.25       0.250      0.05000   
   4     6   1     0     1     1  3.30       0.300      0.05000   
   4     7   1     0     1     1  3.35       0.350      0.05000   
   4     8   1     0     1     1  3.40       0.400      0.05000   
   4     9   1     0     1     1  3.45       0.450      0.05000   
   4    10   1     0     1     1  3.50       0.500      0.05000   
   4    11   1     0     1     1  3.55       0.550      0.05000   
   4    12   1     0     1     1  3.60       0.600      0.05000   
   4    13   1     0     1     1  3.65       0.650      0.05000   
   4    14   1     0     1     1  3.70       0.700      0.05000   
   4    15   1     0     1     1  3.75       0.750      0.05000   
   4    16   1     0     1     1  3.80       0.800      0.05000   
   4    17   1     0     1     1  3.85       0.850      0.05000   
   4    18   1     0     1     1  3.90       0.900      0.05000   
   4    19   1     0     1     1  3.95       0.950      0.05000   
   4    20   1     0     1     1  4.00       1.00       0.05000   
   5     1   1     0     1     1  4.05       0.0500     0.05000   
   5     2   1     0     1     1  4.10       0.100      0.05000   
   5     3   1     0     1     1  4.15       0.150      0.05000   
   5     4   1     0     1     1  4.20       0.200      0.05000   
   5     5   1     0     1     1  4.25       0.250      0.05000   
   5     6   1     0     1     1  4.30       0.300      0.05000   
   5     7   1     0     1     1  4.35       0.350      0.05000   
   5     8   1     0     1     1  4.40       0.400      0.05000   
   5     9   1     0     1     1  4.45       0.450      0.05000   
   5    10   1     0     1     1  4.50       0.500      0.05000   
   5    11   1     0     1     1  4.55       0.550      0.05000   
   5    12   1     0     1     1  4.60       0.600      0.05000   
   5    13   1     0     1     1  4.65       0.650      0.05000   
   5    14   1     0     1     1  4.70       0.700      0.05000   
   5    15   1     0     1     1  4.75       0.750      0.05000   
   5    16   1     0     1     1  4.80       0.800      0.05000   
   5    17   1     0     1     1  4.85       0.850      0.05000   
   5    18   1     0     1     1  4.90       0.900      0.05000   
   5    19   1     0     1     1  4.95       0.950      0.05000   
   5    20   1     0     1     1  5.00       1.00       0.05000   
   6     1   1     0     1     1  5.05       0.0500     0.05000   
   6     2   1     0     1     1  5.10       0.100      0.05000   
   6     3   1     0     1     1  5.15       0.150      0.05000   
   6     4   1     0     1     1  5.20       0.200      0.05000   
   6     5   1     0     1     1  5.25       0.250      0.05000   
   6     6   1     0     1     1  5.30       0.300      0.05000   
   6     7   1     0     1     1  5.35       0.350      0.05000   
   6     8   1     0     1     1  5.40       0.400      0.05000   
   6     9   1     0     1     1  5.45       0.450      0.05000   
   6    10   1     0     1     1  5.50       0.500      0.05000   
   6    11   1     0     1     1  5.55       0.550      0.05000   
   6    12   1     0     1     1  5.60       0.600      0.05000   
   6    13   1     0     1     1  5.65       0.650      0.05000   
   6    14   1     0     1     1  5.70       0.700      0.05000   
   6    15   1     0     1     1  5.75       0.750      0.05000   
   6    16   1     0     1     1  5.80       0.800      0.05000   
   6    17   1     0     1     1  5.85       0.850      0.05000   
   6    18   1     0     1     1  5.90       0.900      0.05000   
   6    19   1     0     1     1  5.95       0.950      0.05000   
   6    20   1     0     1     1  6.00       1.00       0.05000   
   7     1   1     0     1     1  6.05       0.0500     0.05000   
   7     2   1     0     1     1  6.10       0.100      0.05000   
   7     3   1     0     1     1  6.15       0.150      0.05000   
   7     4   1     0     1     1  6.20       0.200      0.05000   
   7     5   1     0     1     1  6.25       0.250      0.05000   
   7     6   1     0     1     1  6.30       0.300      0.05000   
   7     7   1     0     1     1  6.35       0.350      0.05000   
   7     8   1     0     1     1  6.40       0.400      0.05000   
   7     9   1     0     1     1  6.45       0.450      0.05000   
   7    10   1     0     1     1  6.50       0.500      0.05000   
   7    11   1     0     1     1  6.55       0.550      0.05000   
   7    12   1     0     1     1  6.60       0.600      0.05000   
   7    13   1     0     1     1  6.65       0.650      0.05000   
   7    14   1     0     1     1  6.70       0.700      0.05000   
   7    15   1     0     1     1  6.75       0.750      0.05000   
   7    16   1     0     1     1  6.80       0.800      0.05000   
   7    17   1     0     1     1  6.85       0.850      0.05000   
   7    18   1     0     1     1  6.90       0.900      0.05000   
   7    19   1     0     1     1  6.95       0.950      0.05000   
   7    20   1     0     1     1  7.00       1.00       0.05000   
   8     1   1     0     1     1  7.05       0.0500     0.05000   
   8     2   1     0     1     1  7.10       0.100      0.05000   
   8     3   1     0     1     1  7.15       0.150      0.05000   
   8     4   1     0     1     1  7.20       0.200      0.05000   
   8     5   1     0     1     1  7.25       0.250      0.05000   
   8     6   1     0     1     1  7.30       0.300      0.05000   
   8     7   1     0     1     1  7.35       0.350      0.05000   
   8     8   1     0     1     1  7.40       0.400      0.05000   
   8     9   1     0     1     1  7.45       0.450      0.05000   
   8    10   1     0     1     1  7.50       0.500      0.05000   
   8    11   1     0     1     1  7.55       0.550      0.05000   
   8    12   1     0     1     1  7.60       0.600      0.05000   
   8    13   1     0     1     1  7.65       0.650      0.05000   
   8    14   1     0     1     1  7.70       0.700      0.05000   
   8    15   1     0     1     1  7.75       0.750      0.05000   
   8    16   1     0     1     1  7.80       0.800      0.05000   
   8    17   1     0     1     1  7.85       0.850      0.05000   
   8    18   1     0     1     1  7.90       0.900      0.05000   
   8    19   1     0     1     1  7.95       0.950      0.05000   
   8    20   1     0     1     1  8.00       1.00       0.05000   
   9     1   1     0     1     1  8.05       0.0500     0.05000   
   9     2   1U    0     1     1  8.05       0.0500     0.05000   
   9     2   2U    0     1     1  8.05       0.0500     0.01250   
   9     2   3     0     1     1  8.05       0.0531     0.003125  
   9     3   1     0     1     1  8.06       0.0578     0.004688  
   9     4   1U    0     1     1  8.06       0.0578     0.007031  
   9     4   2     0     1     1  8.06       0.0596     0.001758  
   9     5   1U    0     1     1  8.06       0.0596     0.002637  
   9     5   2     0     1     1  8.06       0.0602     0.0006592 
   9     6   1U    0     1     1  8.06       0.0602     0.0009888 
   9     6   2     0     1     1  8.06       0.0605     0.0002472 
   9     7   1U    0     1     1  8.06       0.0605     0.0003708 
   9     7   2U    0     1     1  8.06       0.0605     9.270e-05 
   9     7   3U    0     0     0  8.06       0.0605     5.000e-05 
                          
 THE ANALYSIS HAS NOT BEEN COMPLETED
