1

   Abaqus 2021.HF4                                  Date 24-Feb-2023   Time 15:46:07
   For use by UNIVERSITAET BERN under license from Dassault Systemes or its subsidiary.

                                                                                 
                                                                                 
 STEP    1     INCREMENT     1     STEP TIME    0.00    


                        S T E P       1     S T A T I C   A N A L Y S I S


                                                                                          

     AUTOMATIC TIME CONTROL WITH -
          A SUGGESTED INITIAL TIME INCREMENT OF                5.000E-02
          AND A TOTAL TIME PERIOD OF                            1.00    
          THE MINIMUM TIME INCREMENT ALLOWED IS                5.000E-05
          THE MAXIMUM TIME INCREMENT ALLOWED IS                5.000E-02

     LINEAR EQUATION SOLVER TYPE         DIRECT SPARSE

 CONVERGENCE TOLERANCE PARAMETERS FOR FORCE    
     CRITERION FOR RESIDUAL FORCE     FOR A NONLINEAR PROBLEM          5.000E-03
     CRITERION FOR DISP.    CORRECTION IN A NONLINEAR PROBLEM          1.000E-02
     INITIAL VALUE OF TIME AVERAGE FORCE                               1.000E-02
     AVERAGE FORCE     IS TIME AVERAGE FORCE    
     ALTERNATE CRIT. FOR RESIDUAL FORCE     FOR A NONLINEAR PROBLEM    2.000E-02
     CRITERION FOR ZERO FORCE     RELATIVE TO TIME AVRG. FORCE         1.000E-05
     CRITERION FOR RESIDUAL FORCE     WHEN THERE IS ZERO FLUX          1.000E-05
     CRITERION FOR DISP.    CORRECTION WHEN THERE IS ZERO FLUX         1.000E-03
     CRITERION FOR RESIDUAL FORCE     FOR A LINEAR INCREMENT           1.000E-08
     FIELD CONVERSION RATIO                                             1.00    
     CRITERION FOR ZERO FORCE     REL. TO TIME AVRG. MAX. FORCE        1.000E-05
     CRITERION FOR ZERO DISP.    RELATIVE TO CHARACTERISTIC LENGTH     1.000E-08

 CONVERGENCE TOLERANCE PARAMETERS FOR MOMENT   
     CRITERION FOR RESIDUAL MOMENT    FOR A NONLINEAR PROBLEM          5.000E-03
     CRITERION FOR ROTATION CORRECTION IN A NONLINEAR PROBLEM          1.000E-02
     INITIAL VALUE OF TIME AVERAGE MOMENT                              1.000E-02
     AVERAGE MOMENT    IS TIME AVERAGE MOMENT   
     ALTERNATE CRIT. FOR RESIDUAL MOMENT    FOR A NONLINEAR PROBLEM    2.000E-02
     CRITERION FOR ZERO MOMENT    RELATIVE TO TIME AVRG. MOMENT        1.000E-05
     CRITERION FOR RESIDUAL MOMENT    WHEN THERE IS ZERO FLUX          1.000E-05
     CRITERION FOR ROTATION CORRECTION WHEN THERE IS ZERO FLUX         1.000E-03
     CRITERION FOR RESIDUAL MOMENT    FOR A LINEAR INCREMENT           1.000E-08
     FIELD CONVERSION RATIO                                             1.00    
     CRITERION FOR ZERO MOMENT    REL. TO TIME AVRG. MAX. MOMENT       1.000E-05

     VOLUMETRIC STRAIN COMPATIBILITY TOLERANCE FOR HYBRID SOLIDS       1.000E-05
     AXIAL STRAIN COMPATIBILITY TOLERANCE FOR HYBRID BEAMS             1.000E-05
     TRANS. SHEAR STRAIN COMPATIBILITY TOLERANCE FOR HYBRID BEAMS      1.000E-05
     SOFT CONTACT CONSTRAINT COMPATIBILITY TOLERANCE FOR P>P0          5.000E-03
     SOFT CONTACT CONSTRAINT COMPATIBILITY TOLERANCE FOR P=0.0         0.100    
     CONTACT FORCE ERROR TOLERANCE FOR CONVERT SDI=YES                 1.00    
     DISPLACEMENT COMPATIBILITY TOLERANCE FOR DCOUP ELEMENTS           1.000E-05
     ROTATION COMPATIBILITY TOLERANCE FOR DCOUP ELEMENTS               1.000E-05

 EQUILIBRIUM WILL BE CHECKED FOR SEVERE DISCONTINUITY ITERATIONS

 TIME INCREMENTATION CONTROL PARAMETERS:
     FIRST EQUILIBRIUM ITERATION FOR CONSECUTIVE DIVERGENCE CHECK              4
     EQUILIBRIUM ITERATION AT WHICH LOG. CONVERGENCE RATE CHECK BEGINS         8
     EQUILIBRIUM ITERATION AFTER WHICH ALTERNATE RESIDUAL IS USED              9
     MAXIMUM EQUILIBRIUM ITERATIONS ALLOWED                                   16
     EQUILIBRIUM ITERATION COUNT FOR CUT-BACK IN NEXT INCREMENT               10
     MAXIMUM EQUILIB. ITERS IN TWO INCREMENTS FOR TIME INCREMENT INCREASE      4
     MAXIMUM ITERATIONS FOR SEVERE DISCONTINUITIES                            50
     MAXIMUM ATTEMPTS ALLOWED IN AN INCREMENT                                  5
     MAXIMUM DISCON. ITERS IN TWO INCREMENTS FOR TIME INCREMENT INCREASE      50
     MAXIMUM CONTACT AUGMENTATIONS FOR *SURFACE BEHAVIOR,AUGMENTED LAGRANGE   50
     CUT-BACK FACTOR AFTER DIVERGENCE                                 0.2500    
     CUT-BACK FACTOR FOR TOO SLOW CONVERGENCE                         0.5000    
     CUT-BACK FACTOR AFTER TOO MANY EQUILIBRIUM ITERATIONS            0.7500    
     CUT-BACK FACTOR AFTER TOO MANY SEVERE DISCONTINUITY ITERATIONS   0.2500    
     CUT-BACK FACTOR AFTER PROBLEMS IN ELEMENT ASSEMBLY               0.2500    
     INCREASE FACTOR AFTER TWO INCREMENTS THAT CONVERGE QUICKLY        1.500    
     MAX. TIME INCREMENT INCREASE FACTOR ALLOWED                       1.500    
     MAX. TIME INCREMENT INCREASE FACTOR ALLOWED (DYNAMICS)            1.250    
     MAX. TIME INCREMENT INCREASE FACTOR ALLOWED (DIFFUSION)           2.000    
     MINIMUM TIME INCREMENT RATIO FOR EXTRAPOLATION TO OCCUR          0.1000    
     MAX. RATIO OF TIME INCREMENT TO STABILITY LIMIT                   1.000    
     FRACTION OF STABILITY LIMIT FOR NEW TIME INCREMENT               0.9500    
     TIME INCREMENT INCREASE FACTOR BEFORE A TIME POINT                1.000    
     GLOBAL STABILIZATION CONTROL IS NOT USED

          PRINT OF INCREMENT NUMBER, TIME, ETC., EVERY    1  INCREMENTS

     THE MAXIMUM NUMBER OF INCREMENTS IN THIS STEP IS                    1000

          LARGE DISPLACEMENT THEORY WILL BE USED

          UNSYMMETRIC MATRIX STORAGE AND SOLUTION WILL BE USED

     LINEAR EXTRAPOLATION WILL BE USED

     CHARACTERISTIC ELEMENT LENGTH      1.24    

     DETAILS REGARDING ACTUAL SOLUTION WAVEFRONT REQUESTED

     DETAILED OUTPUT OF DIAGNOSTICS TO DATABASE REQUESTED

     PRINT OF INCREMENT NUMBER, TIME, ETC., TO THE MESSAGE FILE EVERY     1  INCREMENTS

     ELEMENT OPERATIONS WILL BE CARRIED OUT IN PARALLEL USING  24 PROCESSORS

     PARALLEL CONTACT TRACKING ENABLED


     COLLECTING MODEL CONSTRAINT INFORMATION FOR OVERCONSTRAINT CHECKS

     COLLECTING STEP CONSTRAINT INFORMATION FOR OVERCONSTRAINT CHECKS


  INCREMENT     1 STARTS. ATTEMPT NUMBER  1, TIME INCREMENT  5.000E-02
 
     INITIAL ELEMENT LOAD BALANCE
            PROCESS    1   THREAD     NUMBER OF ELEMENTS
                              1            17
                              2            17
                              3            17
                              4            17
                              5            17
                              6            17
                              7            17
                              8            17
                              9            17
                             10            17
                             11            17
                             12            17
                             13            17
                             14            28
                             15            17
                             16            17
                             17            17
                             18            17
                             19            17
                             20            17
                             21            17
                             22            17
                             23            17
                             24            17

  NUMBER OF EQUATIONS =      1407     NUMBER OF RHS =    1
  NUMBER OF FLOATING PT. OPERATIONS =  9.92E+06

  USING THE DIRECT SOLVER WITH  24 PROCESSORS

     CHECK POINT   START OF SOLVER    

     CHECK POINT  END OF SOLVER       

       ELAPSED USER TIME (SEC)      =  0.21000    
       ELAPSED SYSTEM TIME (SEC)    =  3.00000E-02
       ELAPSED TOTAL CPU TIME (SEC) =  0.24000    
       ELAPSED WALLCLOCK TIME (SEC) =          0

               CONVERGENCE CHECKS FOR EQUILIBRIUM ITERATION     1


 AVERAGE FORCE                       3.22       TIME AVG. FORCE        3.22    
 ALL FORCE     RESIDUALS ARE ZERO
 LARGEST INCREMENT OF DISP.         1.451E-02   AT NODE        746   DOF  3
 LARGEST CORRECTION TO DISP.        1.451E-02   AT NODE        746   DOF  3
          THE FORCE     EQUILIBRIUM RESPONSE WAS LINEAR IN THIS INCREMENT

 AVERAGE MOMENT                      0.00       TIME AVG. MOMENT       3.98    
                                                (FROM FORCE     FIELD)
 ALL MOMENT    RESIDUALS ARE ZERO
 LARGEST INCREMENT OF ROTATION      7.500E-04   AT NODE        307   DOF  5
 LARGEST CORRECTION TO ROTATION     7.500E-04   AT NODE        307   DOF  5
          THERE IS ZERO MOMENT    EVERYWHERE

 ITERATION SUMMARY FOR THE INCREMENT:   1 TOTAL ITERATIONS, OF WHICH
   0 ARE SEVERE DISCONTINUITY ITERATIONS AND  1 ARE EQUILIBRIUM ITERATIONS.

 TIME INCREMENT COMPLETED  5.000E-02,  FRACTION OF STEP COMPLETED  5.000E-02
 STEP TIME COMPLETED       5.000E-02,  TOTAL TIME COMPLETED        5.000E-02


  INCREMENT     2 STARTS. ATTEMPT NUMBER  1, TIME INCREMENT  5.000E-02

  NUMBER OF EQUATIONS =      1407     NUMBER OF RHS =    1
  NUMBER OF FLOATING PT. OPERATIONS =  9.92E+06

  USING THE DIRECT SOLVER WITH  24 PROCESSORS

     CHECK POINT   START OF SOLVER    

     CHECK POINT  END OF SOLVER       

       ELAPSED USER TIME (SEC)      =  0.12000    
       ELAPSED SYSTEM TIME (SEC)    =  2.00000E-02
       ELAPSED TOTAL CPU TIME (SEC) =  0.14000    
       ELAPSED WALLCLOCK TIME (SEC) =          0

               CONVERGENCE CHECKS FOR EQUILIBRIUM ITERATION     1


 AVERAGE FORCE                       4.99       TIME AVG. FORCE        4.10    
 ALL FORCE     RESIDUALS ARE ZERO
 LARGEST INCREMENT OF DISP.         1.451E-02   AT NODE        746   DOF  3
 LARGEST CORRECTION TO DISP.        9.952E-06   AT NODE        746   DOF  1
          THE FORCE     EQUILIBRIUM RESPONSE WAS LINEAR IN THIS INCREMENT

 AVERAGE MOMENT                      0.00       TIME AVG. MOMENT       3.98    
                                                (FROM FORCE     FIELD)
 ALL MOMENT    RESIDUALS ARE ZERO
 LARGEST INCREMENT OF ROTATION      7.500E-04   AT NODE        307   DOF  5
 LARGEST CORRECTION TO ROTATION    -1.818E-31   AT NODE        307   DOF  5
          THERE IS ZERO MOMENT    EVERYWHERE

 ITERATION SUMMARY FOR THE INCREMENT:   1 TOTAL ITERATIONS, OF WHICH
   0 ARE SEVERE DISCONTINUITY ITERATIONS AND  1 ARE EQUILIBRIUM ITERATIONS.

 TIME INCREMENT COMPLETED  5.000E-02,  FRACTION OF STEP COMPLETED  0.100    
 STEP TIME COMPLETED       0.100    ,  TOTAL TIME COMPLETED        0.100    


  INCREMENT     3 STARTS. ATTEMPT NUMBER  1, TIME INCREMENT  5.000E-02

  NUMBER OF EQUATIONS =      1407     NUMBER OF RHS =    1
  NUMBER OF FLOATING PT. OPERATIONS =  9.92E+06

  USING THE DIRECT SOLVER WITH  24 PROCESSORS

     CHECK POINT   START OF SOLVER    

     CHECK POINT  END OF SOLVER       

       ELAPSED USER TIME (SEC)      =  0.11000    
       ELAPSED SYSTEM TIME (SEC)    =  1.00000E-02
       ELAPSED TOTAL CPU TIME (SEC) =  0.12000    
       ELAPSED WALLCLOCK TIME (SEC) =          0

               CONVERGENCE CHECKS FOR EQUILIBRIUM ITERATION     1


 AVERAGE FORCE                       6.51       TIME AVG. FORCE        4.91    
 ALL FORCE     RESIDUALS ARE ZERO
 LARGEST INCREMENT OF DISP.         1.451E-02   AT NODE        746   DOF  3
 LARGEST CORRECTION TO DISP.        9.952E-06   AT NODE        746   DOF  1
          THE FORCE     EQUILIBRIUM RESPONSE WAS LINEAR IN THIS INCREMENT

 AVERAGE MOMENT                      0.00       TIME AVG. MOMENT       5.08    
                                                (FROM FORCE     FIELD)
 ALL MOMENT    RESIDUALS ARE ZERO
 LARGEST INCREMENT OF ROTATION      7.500E-04   AT NODE        307   DOF  5
 LARGEST CORRECTION TO ROTATION     2.168E-19   AT NODE        307   DOF  5
          THERE IS ZERO MOMENT    EVERYWHERE

 ITERATION SUMMARY FOR THE INCREMENT:   1 TOTAL ITERATIONS, OF WHICH
   0 ARE SEVERE DISCONTINUITY ITERATIONS AND  1 ARE EQUILIBRIUM ITERATIONS.

 TIME INCREMENT COMPLETED  5.000E-02,  FRACTION OF STEP COMPLETED  0.150    
 STEP TIME COMPLETED       0.150    ,  TOTAL TIME COMPLETED        0.150    


  INCREMENT     4 STARTS. ATTEMPT NUMBER  1, TIME INCREMENT  5.000E-02

  NUMBER OF EQUATIONS =      1407     NUMBER OF RHS =    1
  NUMBER OF FLOATING PT. OPERATIONS =  9.92E+06

  USING THE DIRECT SOLVER WITH  24 PROCESSORS

     CHECK POINT   START OF SOLVER    

     CHECK POINT  END OF SOLVER       

       ELAPSED USER TIME (SEC)      =  0.11000    
       ELAPSED SYSTEM TIME (SEC)    =  2.00000E-02
       ELAPSED TOTAL CPU TIME (SEC) =  0.13000    
       ELAPSED WALLCLOCK TIME (SEC) =          0

               CONVERGENCE CHECKS FOR EQUILIBRIUM ITERATION     1


 AVERAGE FORCE                       7.94       TIME AVG. FORCE        5.66    
 ALL FORCE     RESIDUALS ARE ZERO
 LARGEST INCREMENT OF DISP.         1.451E-02   AT NODE        746   DOF  3
 LARGEST CORRECTION TO DISP.        9.952E-06   AT NODE        746   DOF  1
          THE FORCE     EQUILIBRIUM RESPONSE WAS LINEAR IN THIS INCREMENT

 AVERAGE MOMENT                      0.00       TIME AVG. MOMENT       6.07    
                                                (FROM FORCE     FIELD)
 ALL MOMENT    RESIDUALS ARE ZERO
 LARGEST INCREMENT OF ROTATION      7.500E-04   AT NODE        307   DOF  5
 LARGEST CORRECTION TO ROTATION    -8.674E-19   AT NODE        307   DOF  5
          THERE IS ZERO MOMENT    EVERYWHERE

 ITERATION SUMMARY FOR THE INCREMENT:   1 TOTAL ITERATIONS, OF WHICH
   0 ARE SEVERE DISCONTINUITY ITERATIONS AND  1 ARE EQUILIBRIUM ITERATIONS.

 TIME INCREMENT COMPLETED  5.000E-02,  FRACTION OF STEP COMPLETED  0.200    
 STEP TIME COMPLETED       0.200    ,  TOTAL TIME COMPLETED        0.200    


  INCREMENT     5 STARTS. ATTEMPT NUMBER  1, TIME INCREMENT  5.000E-02

  NUMBER OF EQUATIONS =      1407     NUMBER OF RHS =    1
  NUMBER OF FLOATING PT. OPERATIONS =  9.92E+06

  USING THE DIRECT SOLVER WITH  24 PROCESSORS

     CHECK POINT   START OF SOLVER    

     CHECK POINT  END OF SOLVER       

       ELAPSED USER TIME (SEC)      =  0.11000    
       ELAPSED SYSTEM TIME (SEC)    =  2.00000E-02
       ELAPSED TOTAL CPU TIME (SEC) =  0.13000    
       ELAPSED WALLCLOCK TIME (SEC) =          0

               CONVERGENCE CHECKS FOR EQUILIBRIUM ITERATION     1


 AVERAGE FORCE                       9.32       TIME AVG. FORCE        6.40    
 ALL FORCE     RESIDUALS ARE ZERO
 LARGEST INCREMENT OF DISP.         1.451E-02   AT NODE        746   DOF  3
 LARGEST CORRECTION TO DISP.        9.952E-06   AT NODE        746   DOF  1
          THE FORCE     EQUILIBRIUM RESPONSE WAS LINEAR IN THIS INCREMENT

 AVERAGE MOMENT                      0.00       TIME AVG. MOMENT       7.01    
                                                (FROM FORCE     FIELD)
 ALL MOMENT    RESIDUALS ARE ZERO
 LARGEST INCREMENT OF ROTATION      7.500E-04   AT NODE        307   DOF  5
 LARGEST CORRECTION TO ROTATION     4.337E-19   AT NODE        307   DOF  5
          THERE IS ZERO MOMENT    EVERYWHERE

 ITERATION SUMMARY FOR THE INCREMENT:   1 TOTAL ITERATIONS, OF WHICH
   0 ARE SEVERE DISCONTINUITY ITERATIONS AND  1 ARE EQUILIBRIUM ITERATIONS.

 TIME INCREMENT COMPLETED  5.000E-02,  FRACTION OF STEP COMPLETED  0.250    
 STEP TIME COMPLETED       0.250    ,  TOTAL TIME COMPLETED        0.250    


  INCREMENT     6 STARTS. ATTEMPT NUMBER  1, TIME INCREMENT  5.000E-02

  NUMBER OF EQUATIONS =      1407     NUMBER OF RHS =    1
  NUMBER OF FLOATING PT. OPERATIONS =  9.92E+06

  USING THE DIRECT SOLVER WITH  24 PROCESSORS

     CHECK POINT   START OF SOLVER    

     CHECK POINT  END OF SOLVER       

       ELAPSED USER TIME (SEC)      =  0.17000    
       ELAPSED SYSTEM TIME (SEC)    =  2.00000E-02
       ELAPSED TOTAL CPU TIME (SEC) =  0.19000    
       ELAPSED WALLCLOCK TIME (SEC) =          0

               CONVERGENCE CHECKS FOR EQUILIBRIUM ITERATION     1


 AVERAGE FORCE                       10.7       TIME AVG. FORCE        7.11    
 ALL FORCE     RESIDUALS ARE ZERO
 LARGEST INCREMENT OF DISP.         1.451E-02   AT NODE        746   DOF  3
 LARGEST CORRECTION TO DISP.        9.952E-06   AT NODE        746   DOF  1
          THE FORCE     EQUILIBRIUM RESPONSE WAS LINEAR IN THIS INCREMENT

 AVERAGE MOMENT                      0.00       TIME AVG. MOMENT       7.92    
                                                (FROM FORCE     FIELD)
 ALL MOMENT    RESIDUALS ARE ZERO
 LARGEST INCREMENT OF ROTATION      7.500E-04   AT NODE        307   DOF  5
 LARGEST CORRECTION TO ROTATION    -4.337E-19   AT NODE        307   DOF  5
          THERE IS ZERO MOMENT    EVERYWHERE

 ITERATION SUMMARY FOR THE INCREMENT:   1 TOTAL ITERATIONS, OF WHICH
   0 ARE SEVERE DISCONTINUITY ITERATIONS AND  1 ARE EQUILIBRIUM ITERATIONS.

 TIME INCREMENT COMPLETED  5.000E-02,  FRACTION OF STEP COMPLETED  0.300    
 STEP TIME COMPLETED       0.300    ,  TOTAL TIME COMPLETED        0.300    


  INCREMENT     7 STARTS. ATTEMPT NUMBER  1, TIME INCREMENT  5.000E-02

  NUMBER OF EQUATIONS =      1407     NUMBER OF RHS =    1
  NUMBER OF FLOATING PT. OPERATIONS =  9.92E+06

  USING THE DIRECT SOLVER WITH  24 PROCESSORS

     CHECK POINT   START OF SOLVER    

     CHECK POINT  END OF SOLVER       

       ELAPSED USER TIME (SEC)      =  0.13000    
       ELAPSED SYSTEM TIME (SEC)    =   0.0000    
       ELAPSED TOTAL CPU TIME (SEC) =  0.13000    
       ELAPSED WALLCLOCK TIME (SEC) =          0

               CONVERGENCE CHECKS FOR EQUILIBRIUM ITERATION     1


 AVERAGE FORCE                       12.0       TIME AVG. FORCE        7.81    
 ALL FORCE     RESIDUALS ARE ZERO
 LARGEST INCREMENT OF DISP.         1.451E-02   AT NODE        746   DOF  3
 LARGEST CORRECTION TO DISP.        9.952E-06   AT NODE        746   DOF  1
          THE FORCE     EQUILIBRIUM RESPONSE WAS LINEAR IN THIS INCREMENT

 AVERAGE MOMENT                      0.00       TIME AVG. MOMENT       8.80    
                                                (FROM FORCE     FIELD)
 ALL MOMENT    RESIDUALS ARE ZERO
 LARGEST INCREMENT OF ROTATION      7.500E-04   AT NODE        307   DOF  5
 LARGEST CORRECTION TO ROTATION     4.337E-19   AT NODE        307   DOF  5
          THERE IS ZERO MOMENT    EVERYWHERE

 ITERATION SUMMARY FOR THE INCREMENT:   1 TOTAL ITERATIONS, OF WHICH
   0 ARE SEVERE DISCONTINUITY ITERATIONS AND  1 ARE EQUILIBRIUM ITERATIONS.

 TIME INCREMENT COMPLETED  5.000E-02,  FRACTION OF STEP COMPLETED  0.350    
 STEP TIME COMPLETED       0.350    ,  TOTAL TIME COMPLETED        0.350    


  INCREMENT     8 STARTS. ATTEMPT NUMBER  1, TIME INCREMENT  5.000E-02

  NUMBER OF EQUATIONS =      1407     NUMBER OF RHS =    1
  NUMBER OF FLOATING PT. OPERATIONS =  9.92E+06

  USING THE DIRECT SOLVER WITH  24 PROCESSORS

     CHECK POINT   START OF SOLVER    

     CHECK POINT  END OF SOLVER       

       ELAPSED USER TIME (SEC)      =  0.11000    
       ELAPSED SYSTEM TIME (SEC)    =  2.00000E-02
       ELAPSED TOTAL CPU TIME (SEC) =  0.13000    
       ELAPSED WALLCLOCK TIME (SEC) =          0

               CONVERGENCE CHECKS FOR EQUILIBRIUM ITERATION     1


 AVERAGE FORCE                       13.3       TIME AVG. FORCE        8.49    
 ALL FORCE     RESIDUALS ARE ZERO
 LARGEST INCREMENT OF DISP.         1.451E-02   AT NODE        746   DOF  3
 LARGEST CORRECTION TO DISP.        9.952E-06   AT NODE        746   DOF  1
          THE FORCE     EQUILIBRIUM RESPONSE WAS LINEAR IN THIS INCREMENT

 AVERAGE MOMENT                      0.00       TIME AVG. MOMENT       9.66    
                                                (FROM FORCE     FIELD)
 ALL MOMENT    RESIDUALS ARE ZERO
 LARGEST INCREMENT OF ROTATION      7.500E-04   AT NODE        307   DOF  5
 LARGEST CORRECTION TO ROTATION    -8.674E-19   AT NODE        307   DOF  5
          THERE IS ZERO MOMENT    EVERYWHERE

 ITERATION SUMMARY FOR THE INCREMENT:   1 TOTAL ITERATIONS, OF WHICH
   0 ARE SEVERE DISCONTINUITY ITERATIONS AND  1 ARE EQUILIBRIUM ITERATIONS.

 TIME INCREMENT COMPLETED  5.000E-02,  FRACTION OF STEP COMPLETED  0.400    
 STEP TIME COMPLETED       0.400    ,  TOTAL TIME COMPLETED        0.400    


  INCREMENT     9 STARTS. ATTEMPT NUMBER  1, TIME INCREMENT  5.000E-02

  NUMBER OF EQUATIONS =      1407     NUMBER OF RHS =    1
  NUMBER OF FLOATING PT. OPERATIONS =  9.92E+06

  USING THE DIRECT SOLVER WITH  24 PROCESSORS

     CHECK POINT   START OF SOLVER    

     CHECK POINT  END OF SOLVER       

       ELAPSED USER TIME (SEC)      =  0.11000    
       ELAPSED SYSTEM TIME (SEC)    =  2.00000E-02
       ELAPSED TOTAL CPU TIME (SEC) =  0.13000    
       ELAPSED WALLCLOCK TIME (SEC) =          0

               CONVERGENCE CHECKS FOR EQUILIBRIUM ITERATION     1


 AVERAGE FORCE                       14.5       TIME AVG. FORCE        9.16    
 ALL FORCE     RESIDUALS ARE ZERO
 LARGEST INCREMENT OF DISP.         1.451E-02   AT NODE        746   DOF  3
 LARGEST CORRECTION TO DISP.        9.952E-06   AT NODE        746   DOF  1
          THE FORCE     EQUILIBRIUM RESPONSE WAS LINEAR IN THIS INCREMENT

 AVERAGE MOMENT                      0.00       TIME AVG. MOMENT       10.5    
                                                (FROM FORCE     FIELD)
 ALL MOMENT    RESIDUALS ARE ZERO
 LARGEST INCREMENT OF ROTATION      7.500E-04   AT NODE        307   DOF  5
 LARGEST CORRECTION TO ROTATION     8.674E-19   AT NODE        307   DOF  5
          THERE IS ZERO MOMENT    EVERYWHERE

 ITERATION SUMMARY FOR THE INCREMENT:   1 TOTAL ITERATIONS, OF WHICH
   0 ARE SEVERE DISCONTINUITY ITERATIONS AND  1 ARE EQUILIBRIUM ITERATIONS.

 TIME INCREMENT COMPLETED  5.000E-02,  FRACTION OF STEP COMPLETED  0.450    
 STEP TIME COMPLETED       0.450    ,  TOTAL TIME COMPLETED        0.450    


  INCREMENT    10 STARTS. ATTEMPT NUMBER  1, TIME INCREMENT  5.000E-02

  NUMBER OF EQUATIONS =      1407     NUMBER OF RHS =    1
  NUMBER OF FLOATING PT. OPERATIONS =  9.92E+06

  USING THE DIRECT SOLVER WITH  24 PROCESSORS

     CHECK POINT   START OF SOLVER    

     CHECK POINT  END OF SOLVER       

       ELAPSED USER TIME (SEC)      =  0.11000    
       ELAPSED SYSTEM TIME (SEC)    =  1.00000E-02
       ELAPSED TOTAL CPU TIME (SEC) =  0.12000    
       ELAPSED WALLCLOCK TIME (SEC) =          0

               CONVERGENCE CHECKS FOR EQUILIBRIUM ITERATION     1


 AVERAGE FORCE                       15.7       TIME AVG. FORCE        9.81    
 ALL FORCE     RESIDUALS ARE ZERO
 LARGEST INCREMENT OF DISP.         1.451E-02   AT NODE        746   DOF  3
 LARGEST CORRECTION TO DISP.        9.952E-06   AT NODE        746   DOF  1
          THE FORCE     EQUILIBRIUM RESPONSE WAS LINEAR IN THIS INCREMENT

 AVERAGE MOMENT                      0.00       TIME AVG. MOMENT       11.3    
                                                (FROM FORCE     FIELD)
 ALL MOMENT    RESIDUALS ARE ZERO
 LARGEST INCREMENT OF ROTATION      7.500E-04   AT NODE        307   DOF  5
 LARGEST CORRECTION TO ROTATION     2.168E-19   AT NODE        307   DOF  4
          THERE IS ZERO MOMENT    EVERYWHERE

 ITERATION SUMMARY FOR THE INCREMENT:   1 TOTAL ITERATIONS, OF WHICH
   0 ARE SEVERE DISCONTINUITY ITERATIONS AND  1 ARE EQUILIBRIUM ITERATIONS.

 TIME INCREMENT COMPLETED  5.000E-02,  FRACTION OF STEP COMPLETED  0.500    
 STEP TIME COMPLETED       0.500    ,  TOTAL TIME COMPLETED        0.500    


  INCREMENT    11 STARTS. ATTEMPT NUMBER  1, TIME INCREMENT  5.000E-02

  NUMBER OF EQUATIONS =      1407     NUMBER OF RHS =    1
  NUMBER OF FLOATING PT. OPERATIONS =  9.92E+06

  USING THE DIRECT SOLVER WITH  24 PROCESSORS

     CHECK POINT   START OF SOLVER    

     CHECK POINT  END OF SOLVER       

       ELAPSED USER TIME (SEC)      =  0.12000    
       ELAPSED SYSTEM TIME (SEC)    =  2.00000E-02
       ELAPSED TOTAL CPU TIME (SEC) =  0.14000    
       ELAPSED WALLCLOCK TIME (SEC) =          0

               CONVERGENCE CHECKS FOR EQUILIBRIUM ITERATION     1


 AVERAGE FORCE                       16.9       TIME AVG. FORCE        10.5    
 ALL FORCE     RESIDUALS ARE ZERO
 LARGEST INCREMENT OF DISP.         1.451E-02   AT NODE        746   DOF  3
 LARGEST CORRECTION TO DISP.        9.952E-06   AT NODE        746   DOF  1
          THE FORCE     EQUILIBRIUM RESPONSE WAS LINEAR IN THIS INCREMENT

 AVERAGE MOMENT                      0.00       TIME AVG. MOMENT       12.1    
                                                (FROM FORCE     FIELD)
 ALL MOMENT    RESIDUALS ARE ZERO
 LARGEST INCREMENT OF ROTATION      7.500E-04   AT NODE        307   DOF  5
 LARGEST CORRECTION TO ROTATION    -2.168E-19   AT NODE        307   DOF  4
          THERE IS ZERO MOMENT    EVERYWHERE

 ITERATION SUMMARY FOR THE INCREMENT:   1 TOTAL ITERATIONS, OF WHICH
   0 ARE SEVERE DISCONTINUITY ITERATIONS AND  1 ARE EQUILIBRIUM ITERATIONS.

 TIME INCREMENT COMPLETED  5.000E-02,  FRACTION OF STEP COMPLETED  0.550    
 STEP TIME COMPLETED       0.550    ,  TOTAL TIME COMPLETED        0.550    


  INCREMENT    12 STARTS. ATTEMPT NUMBER  1, TIME INCREMENT  5.000E-02

  NUMBER OF EQUATIONS =      1407     NUMBER OF RHS =    1
  NUMBER OF FLOATING PT. OPERATIONS =  9.92E+06

  USING THE DIRECT SOLVER WITH  24 PROCESSORS

     CHECK POINT   START OF SOLVER    

     CHECK POINT  END OF SOLVER       

       ELAPSED USER TIME (SEC)      =  0.13000    
       ELAPSED SYSTEM TIME (SEC)    =  3.00000E-02
       ELAPSED TOTAL CPU TIME (SEC) =  0.16000    
       ELAPSED WALLCLOCK TIME (SEC) =          0

               CONVERGENCE CHECKS FOR EQUILIBRIUM ITERATION     1


 AVERAGE FORCE                       18.1       TIME AVG. FORCE        11.1    
 ALL FORCE     RESIDUALS ARE ZERO
 LARGEST INCREMENT OF DISP.         1.451E-02   AT NODE        746   DOF  3
 LARGEST CORRECTION TO DISP.        9.952E-06   AT NODE        746   DOF  1
          THE FORCE     EQUILIBRIUM RESPONSE WAS LINEAR IN THIS INCREMENT

 AVERAGE MOMENT                      0.00       TIME AVG. MOMENT       12.9    
                                                (FROM FORCE     FIELD)
 ALL MOMENT    RESIDUALS ARE ZERO
 LARGEST INCREMENT OF ROTATION      7.500E-04   AT NODE        307   DOF  5
 LARGEST CORRECTION TO ROTATION     8.674E-19   AT NODE        307   DOF  5
          THERE IS ZERO MOMENT    EVERYWHERE

 ITERATION SUMMARY FOR THE INCREMENT:   1 TOTAL ITERATIONS, OF WHICH
   0 ARE SEVERE DISCONTINUITY ITERATIONS AND  1 ARE EQUILIBRIUM ITERATIONS.

 TIME INCREMENT COMPLETED  5.000E-02,  FRACTION OF STEP COMPLETED  0.600    
 STEP TIME COMPLETED       0.600    ,  TOTAL TIME COMPLETED        0.600    


  INCREMENT    13 STARTS. ATTEMPT NUMBER  1, TIME INCREMENT  5.000E-02

  NUMBER OF EQUATIONS =      1407     NUMBER OF RHS =    1
  NUMBER OF FLOATING PT. OPERATIONS =  9.92E+06

  USING THE DIRECT SOLVER WITH  24 PROCESSORS

     CHECK POINT   START OF SOLVER    

     CHECK POINT  END OF SOLVER       

       ELAPSED USER TIME (SEC)      =  0.11000    
       ELAPSED SYSTEM TIME (SEC)    =  2.00000E-02
       ELAPSED TOTAL CPU TIME (SEC) =  0.13000    
       ELAPSED WALLCLOCK TIME (SEC) =          0

               CONVERGENCE CHECKS FOR EQUILIBRIUM ITERATION     1


 AVERAGE FORCE                       19.4       TIME AVG. FORCE        11.7    
 ALL FORCE     RESIDUALS ARE ZERO
 LARGEST INCREMENT OF DISP.         1.451E-02   AT NODE        746   DOF  3
 LARGEST CORRECTION TO DISP.        9.952E-06   AT NODE        746   DOF  1
          THE FORCE     EQUILIBRIUM RESPONSE WAS LINEAR IN THIS INCREMENT

 AVERAGE MOMENT                      0.00       TIME AVG. MOMENT       13.7    
                                                (FROM FORCE     FIELD)
 ALL MOMENT    RESIDUALS ARE ZERO
 LARGEST INCREMENT OF ROTATION      7.500E-04   AT NODE        307   DOF  5
 LARGEST CORRECTION TO ROTATION     1.735E-18   AT NODE        307   DOF  5
          THERE IS ZERO MOMENT    EVERYWHERE

 ITERATION SUMMARY FOR THE INCREMENT:   1 TOTAL ITERATIONS, OF WHICH
   0 ARE SEVERE DISCONTINUITY ITERATIONS AND  1 ARE EQUILIBRIUM ITERATIONS.

 TIME INCREMENT COMPLETED  5.000E-02,  FRACTION OF STEP COMPLETED  0.650    
 STEP TIME COMPLETED       0.650    ,  TOTAL TIME COMPLETED        0.650    


  INCREMENT    14 STARTS. ATTEMPT NUMBER  1, TIME INCREMENT  5.000E-02

  NUMBER OF EQUATIONS =      1407     NUMBER OF RHS =    1
  NUMBER OF FLOATING PT. OPERATIONS =  9.92E+06

  USING THE DIRECT SOLVER WITH  24 PROCESSORS

     CHECK POINT   START OF SOLVER    

     CHECK POINT  END OF SOLVER       

       ELAPSED USER TIME (SEC)      =  0.12000    
       ELAPSED SYSTEM TIME (SEC)    =  2.00000E-02
       ELAPSED TOTAL CPU TIME (SEC) =  0.14000    
       ELAPSED WALLCLOCK TIME (SEC) =          0

               CONVERGENCE CHECKS FOR EQUILIBRIUM ITERATION     1


 AVERAGE FORCE                       20.6       TIME AVG. FORCE        12.4    
 ALL FORCE     RESIDUALS ARE ZERO
 LARGEST INCREMENT OF DISP.         1.451E-02   AT NODE        746   DOF  3
 LARGEST CORRECTION TO DISP.        9.952E-06   AT NODE        746   DOF  1
          THE FORCE     EQUILIBRIUM RESPONSE WAS LINEAR IN THIS INCREMENT

 AVERAGE MOMENT                      0.00       TIME AVG. MOMENT       14.5    
                                                (FROM FORCE     FIELD)
 ALL MOMENT    RESIDUALS ARE ZERO
 LARGEST INCREMENT OF ROTATION      7.500E-04   AT NODE        307   DOF  5
 LARGEST CORRECTION TO ROTATION    -1.626E-18   AT NODE        307   DOF  5
          THERE IS ZERO MOMENT    EVERYWHERE

 ITERATION SUMMARY FOR THE INCREMENT:   1 TOTAL ITERATIONS, OF WHICH
   0 ARE SEVERE DISCONTINUITY ITERATIONS AND  1 ARE EQUILIBRIUM ITERATIONS.

 TIME INCREMENT COMPLETED  5.000E-02,  FRACTION OF STEP COMPLETED  0.700    
 STEP TIME COMPLETED       0.700    ,  TOTAL TIME COMPLETED        0.700    


  INCREMENT    15 STARTS. ATTEMPT NUMBER  1, TIME INCREMENT  5.000E-02

  NUMBER OF EQUATIONS =      1407     NUMBER OF RHS =    1
  NUMBER OF FLOATING PT. OPERATIONS =  9.92E+06

  USING THE DIRECT SOLVER WITH  24 PROCESSORS

     CHECK POINT   START OF SOLVER    

     CHECK POINT  END OF SOLVER       

       ELAPSED USER TIME (SEC)      =  0.12000    
       ELAPSED SYSTEM TIME (SEC)    =  3.00000E-02
       ELAPSED TOTAL CPU TIME (SEC) =  0.15000    
       ELAPSED WALLCLOCK TIME (SEC) =          0

               CONVERGENCE CHECKS FOR EQUILIBRIUM ITERATION     1


 AVERAGE FORCE                       21.8       TIME AVG. FORCE        13.0    
 ALL FORCE     RESIDUALS ARE ZERO
 LARGEST INCREMENT OF DISP.         1.451E-02   AT NODE        746   DOF  3
 LARGEST CORRECTION TO DISP.        9.952E-06   AT NODE        746   DOF  1
          THE FORCE     EQUILIBRIUM RESPONSE WAS LINEAR IN THIS INCREMENT

 AVERAGE MOMENT                      0.00       TIME AVG. MOMENT       15.3    
                                                (FROM FORCE     FIELD)
 ALL MOMENT    RESIDUALS ARE ZERO
 LARGEST INCREMENT OF ROTATION      7.500E-04   AT NODE        307   DOF  5
 LARGEST CORRECTION TO ROTATION    -1.626E-18   AT NODE        307   DOF  5
          THERE IS ZERO MOMENT    EVERYWHERE

 ITERATION SUMMARY FOR THE INCREMENT:   1 TOTAL ITERATIONS, OF WHICH
   0 ARE SEVERE DISCONTINUITY ITERATIONS AND  1 ARE EQUILIBRIUM ITERATIONS.

 TIME INCREMENT COMPLETED  5.000E-02,  FRACTION OF STEP COMPLETED  0.750    
 STEP TIME COMPLETED       0.750    ,  TOTAL TIME COMPLETED        0.750    


  INCREMENT    16 STARTS. ATTEMPT NUMBER  1, TIME INCREMENT  5.000E-02

  NUMBER OF EQUATIONS =      1407     NUMBER OF RHS =    1
  NUMBER OF FLOATING PT. OPERATIONS =  9.92E+06

  USING THE DIRECT SOLVER WITH  24 PROCESSORS

     CHECK POINT   START OF SOLVER    

     CHECK POINT  END OF SOLVER       

       ELAPSED USER TIME (SEC)      =  0.15000    
       ELAPSED SYSTEM TIME (SEC)    =  2.00000E-02
       ELAPSED TOTAL CPU TIME (SEC) =  0.17000    
       ELAPSED WALLCLOCK TIME (SEC) =          0

               CONVERGENCE CHECKS FOR EQUILIBRIUM ITERATION     1


 AVERAGE FORCE                       23.0       TIME AVG. FORCE        13.6    
 ALL FORCE     RESIDUALS ARE ZERO
 LARGEST INCREMENT OF DISP.         1.451E-02   AT NODE        746   DOF  3
 LARGEST CORRECTION TO DISP.        9.952E-06   AT NODE        746   DOF  1
          THE FORCE     EQUILIBRIUM RESPONSE WAS LINEAR IN THIS INCREMENT

 AVERAGE MOMENT                      0.00       TIME AVG. MOMENT       16.1    
                                                (FROM FORCE     FIELD)
 ALL MOMENT    RESIDUALS ARE ZERO
 LARGEST INCREMENT OF ROTATION      7.500E-04   AT NODE        307   DOF  5
 LARGEST CORRECTION TO ROTATION     1.843E-18   AT NODE        307   DOF  5
          THERE IS ZERO MOMENT    EVERYWHERE

 ITERATION SUMMARY FOR THE INCREMENT:   1 TOTAL ITERATIONS, OF WHICH
   0 ARE SEVERE DISCONTINUITY ITERATIONS AND  1 ARE EQUILIBRIUM ITERATIONS.

 TIME INCREMENT COMPLETED  5.000E-02,  FRACTION OF STEP COMPLETED  0.800    
 STEP TIME COMPLETED       0.800    ,  TOTAL TIME COMPLETED        0.800    


  INCREMENT    17 STARTS. ATTEMPT NUMBER  1, TIME INCREMENT  5.000E-02

  NUMBER OF EQUATIONS =      1407     NUMBER OF RHS =    1
  NUMBER OF FLOATING PT. OPERATIONS =  9.92E+06

  USING THE DIRECT SOLVER WITH  24 PROCESSORS

     CHECK POINT   START OF SOLVER    

     CHECK POINT  END OF SOLVER       

       ELAPSED USER TIME (SEC)      =  0.13000    
       ELAPSED SYSTEM TIME (SEC)    =  2.00000E-02
       ELAPSED TOTAL CPU TIME (SEC) =  0.15000    
       ELAPSED WALLCLOCK TIME (SEC) =          0

               CONVERGENCE CHECKS FOR EQUILIBRIUM ITERATION     1


 AVERAGE FORCE                       24.2       TIME AVG. FORCE        14.2    
 ALL FORCE     RESIDUALS ARE ZERO
 LARGEST INCREMENT OF DISP.         1.451E-02   AT NODE        746   DOF  3
 LARGEST CORRECTION TO DISP.        9.952E-06   AT NODE        746   DOF  1
          THE FORCE     EQUILIBRIUM RESPONSE WAS LINEAR IN THIS INCREMENT

 AVERAGE MOMENT                      0.00       TIME AVG. MOMENT       16.9    
                                                (FROM FORCE     FIELD)
 ALL MOMENT    RESIDUALS ARE ZERO
 LARGEST INCREMENT OF ROTATION      7.500E-04   AT NODE        307   DOF  5
 LARGEST CORRECTION TO ROTATION     2.033E-19   AT NODE        307   DOF  4
          THERE IS ZERO MOMENT    EVERYWHERE

 ITERATION SUMMARY FOR THE INCREMENT:   1 TOTAL ITERATIONS, OF WHICH
   0 ARE SEVERE DISCONTINUITY ITERATIONS AND  1 ARE EQUILIBRIUM ITERATIONS.

 TIME INCREMENT COMPLETED  5.000E-02,  FRACTION OF STEP COMPLETED  0.850    
 STEP TIME COMPLETED       0.850    ,  TOTAL TIME COMPLETED        0.850    


  INCREMENT    18 STARTS. ATTEMPT NUMBER  1, TIME INCREMENT  5.000E-02

  NUMBER OF EQUATIONS =      1407     NUMBER OF RHS =    1
  NUMBER OF FLOATING PT. OPERATIONS =  9.92E+06

  USING THE DIRECT SOLVER WITH  24 PROCESSORS

     CHECK POINT   START OF SOLVER    

     CHECK POINT  END OF SOLVER       

       ELAPSED USER TIME (SEC)      =  0.11000    
       ELAPSED SYSTEM TIME (SEC)    =  2.00000E-02
       ELAPSED TOTAL CPU TIME (SEC) =  0.13000    
       ELAPSED WALLCLOCK TIME (SEC) =          0

               CONVERGENCE CHECKS FOR EQUILIBRIUM ITERATION     1


 AVERAGE FORCE                       25.5       TIME AVG. FORCE        14.9    
 ALL FORCE     RESIDUALS ARE ZERO
 LARGEST INCREMENT OF DISP.         1.451E-02   AT NODE        746   DOF  3
 LARGEST CORRECTION TO DISP.        9.952E-06   AT NODE        746   DOF  1
          THE FORCE     EQUILIBRIUM RESPONSE WAS LINEAR IN THIS INCREMENT

 AVERAGE MOMENT                      0.00       TIME AVG. MOMENT       17.6    
                                                (FROM FORCE     FIELD)
 ALL MOMENT    RESIDUALS ARE ZERO
 LARGEST INCREMENT OF ROTATION      7.500E-04   AT NODE        307   DOF  5
 LARGEST CORRECTION TO ROTATION     1.735E-18   AT NODE        307   DOF  5
          THERE IS ZERO MOMENT    EVERYWHERE

 ITERATION SUMMARY FOR THE INCREMENT:   1 TOTAL ITERATIONS, OF WHICH
   0 ARE SEVERE DISCONTINUITY ITERATIONS AND  1 ARE EQUILIBRIUM ITERATIONS.

 TIME INCREMENT COMPLETED  5.000E-02,  FRACTION OF STEP COMPLETED  0.900    
 STEP TIME COMPLETED       0.900    ,  TOTAL TIME COMPLETED        0.900    


  INCREMENT    19 STARTS. ATTEMPT NUMBER  1, TIME INCREMENT  5.000E-02

  NUMBER OF EQUATIONS =      1407     NUMBER OF RHS =    1
  NUMBER OF FLOATING PT. OPERATIONS =  9.92E+06

  USING THE DIRECT SOLVER WITH  24 PROCESSORS

     CHECK POINT   START OF SOLVER    

     CHECK POINT  END OF SOLVER       

       ELAPSED USER TIME (SEC)      =  0.13000    
       ELAPSED SYSTEM TIME (SEC)    =  1.00000E-02
       ELAPSED TOTAL CPU TIME (SEC) =  0.14000    
       ELAPSED WALLCLOCK TIME (SEC) =          0

               CONVERGENCE CHECKS FOR EQUILIBRIUM ITERATION     1


 AVERAGE FORCE                       26.7       TIME AVG. FORCE        15.5    
 ALL FORCE     RESIDUALS ARE ZERO
 LARGEST INCREMENT OF DISP.         1.451E-02   AT NODE        746   DOF  3
 LARGEST CORRECTION TO DISP.        9.952E-06   AT NODE        746   DOF  1
          THE FORCE     EQUILIBRIUM RESPONSE WAS LINEAR IN THIS INCREMENT

 AVERAGE MOMENT                      0.00       TIME AVG. MOMENT       18.4    
                                                (FROM FORCE     FIELD)
 ALL MOMENT    RESIDUALS ARE ZERO
 LARGEST INCREMENT OF ROTATION      7.500E-04   AT NODE        307   DOF  5
 LARGEST CORRECTION TO ROTATION     4.201E-19   AT NODE        307   DOF  4
          THERE IS ZERO MOMENT    EVERYWHERE

 ITERATION SUMMARY FOR THE INCREMENT:   1 TOTAL ITERATIONS, OF WHICH
   0 ARE SEVERE DISCONTINUITY ITERATIONS AND  1 ARE EQUILIBRIUM ITERATIONS.

 TIME INCREMENT COMPLETED  5.000E-02,  FRACTION OF STEP COMPLETED  0.950    
 STEP TIME COMPLETED       0.950    ,  TOTAL TIME COMPLETED        0.950    


  INCREMENT    20 STARTS. ATTEMPT NUMBER  1, TIME INCREMENT  5.000E-02

  NUMBER OF EQUATIONS =      1407     NUMBER OF RHS =    1
  NUMBER OF FLOATING PT. OPERATIONS =  9.92E+06

  USING THE DIRECT SOLVER WITH  24 PROCESSORS

     CHECK POINT   START OF SOLVER    

     CHECK POINT  END OF SOLVER       

       ELAPSED USER TIME (SEC)      =  0.11000    
       ELAPSED SYSTEM TIME (SEC)    =  3.00000E-02
       ELAPSED TOTAL CPU TIME (SEC) =  0.14000    
       ELAPSED WALLCLOCK TIME (SEC) =          0

               CONVERGENCE CHECKS FOR EQUILIBRIUM ITERATION     1


 AVERAGE FORCE                       27.9       TIME AVG. FORCE        16.1    
 ALL FORCE     RESIDUALS ARE ZERO
 LARGEST INCREMENT OF DISP.         1.451E-02   AT NODE        746   DOF  3
 LARGEST CORRECTION TO DISP.        9.952E-06   AT NODE        746   DOF  1
          THE FORCE     EQUILIBRIUM RESPONSE WAS LINEAR IN THIS INCREMENT

 AVERAGE MOMENT                      0.00       TIME AVG. MOMENT       19.2    
                                                (FROM FORCE     FIELD)
 ALL MOMENT    RESIDUALS ARE ZERO
 LARGEST INCREMENT OF ROTATION      7.500E-04   AT NODE        307   DOF  5
 LARGEST CORRECTION TO ROTATION    -2.602E-18   AT NODE        307   DOF  5
          THERE IS ZERO MOMENT    EVERYWHERE

 ITERATION SUMMARY FOR THE INCREMENT:   1 TOTAL ITERATIONS, OF WHICH
   0 ARE SEVERE DISCONTINUITY ITERATIONS AND  1 ARE EQUILIBRIUM ITERATIONS.

 TIME INCREMENT COMPLETED  5.000E-02,  FRACTION OF STEP COMPLETED   1.00    
 STEP TIME COMPLETED        1.00    ,  TOTAL TIME COMPLETED         1.00    
1

   Abaqus 2021.HF4                                  Date 24-Feb-2023   Time 15:46:09
   For use by UNIVERSITAET BERN under license from Dassault Systemes or its subsidiary.

                                                                                 
                                                                                 
 STEP    2     INCREMENT     1     STEP TIME    0.00    


                        S T E P       2     S T A T I C   A N A L Y S I S


                                                                                          

     AUTOMATIC TIME CONTROL WITH -
          A SUGGESTED INITIAL TIME INCREMENT OF                5.000E-02
          AND A TOTAL TIME PERIOD OF                            1.00    
          THE MINIMUM TIME INCREMENT ALLOWED IS                5.000E-05
          THE MAXIMUM TIME INCREMENT ALLOWED IS                5.000E-02

     LINEAR EQUATION SOLVER TYPE         DIRECT SPARSE

 CONVERGENCE TOLERANCE PARAMETERS FOR FORCE    
     CRITERION FOR RESIDUAL FORCE     FOR A NONLINEAR PROBLEM          5.000E-03
     CRITERION FOR DISP.    CORRECTION IN A NONLINEAR PROBLEM          1.000E-02
     INIT. VALUE OF TIME AVG. FORCE     IS TIME AVG. FORCE     IN PREVIOUS STEP
     AVERAGE FORCE     IS TIME AVERAGE FORCE    
     ALTERNATE CRIT. FOR RESIDUAL FORCE     FOR A NONLINEAR PROBLEM    2.000E-02
     CRITERION FOR ZERO FORCE     RELATIVE TO TIME AVRG. FORCE         1.000E-05
     CRITERION FOR RESIDUAL FORCE     WHEN THERE IS ZERO FLUX          1.000E-05
     CRITERION FOR DISP.    CORRECTION WHEN THERE IS ZERO FLUX         1.000E-03
     CRITERION FOR RESIDUAL FORCE     FOR A LINEAR INCREMENT           1.000E-08
     FIELD CONVERSION RATIO                                             1.00    
     CRITERION FOR ZERO FORCE     REL. TO TIME AVRG. MAX. FORCE        1.000E-05
     CRITERION FOR ZERO DISP.    RELATIVE TO CHARACTERISTIC LENGTH     1.000E-08

 CONVERGENCE TOLERANCE PARAMETERS FOR MOMENT   
     CRITERION FOR RESIDUAL MOMENT    FOR A NONLINEAR PROBLEM          5.000E-03
     CRITERION FOR ROTATION CORRECTION IN A NONLINEAR PROBLEM          1.000E-02
     INIT. VALUE OF TIME AVG. MOMENT    IS TIME AVG. MOMENT    IN PREVIOUS STEP
     AVERAGE MOMENT    IS TIME AVERAGE MOMENT   
     ALTERNATE CRIT. FOR RESIDUAL MOMENT    FOR A NONLINEAR PROBLEM    2.000E-02
     CRITERION FOR ZERO MOMENT    RELATIVE TO TIME AVRG. MOMENT        1.000E-05
     CRITERION FOR RESIDUAL MOMENT    WHEN THERE IS ZERO FLUX          1.000E-05
     CRITERION FOR ROTATION CORRECTION WHEN THERE IS ZERO FLUX         1.000E-03
     CRITERION FOR RESIDUAL MOMENT    FOR A LINEAR INCREMENT           1.000E-08
     FIELD CONVERSION RATIO                                             1.00    
     CRITERION FOR ZERO MOMENT    REL. TO TIME AVRG. MAX. MOMENT       1.000E-05

     VOLUMETRIC STRAIN COMPATIBILITY TOLERANCE FOR HYBRID SOLIDS       1.000E-05
     AXIAL STRAIN COMPATIBILITY TOLERANCE FOR HYBRID BEAMS             1.000E-05
     TRANS. SHEAR STRAIN COMPATIBILITY TOLERANCE FOR HYBRID BEAMS      1.000E-05
     SOFT CONTACT CONSTRAINT COMPATIBILITY TOLERANCE FOR P>P0          5.000E-03
     SOFT CONTACT CONSTRAINT COMPATIBILITY TOLERANCE FOR P=0.0         0.100    
     CONTACT FORCE ERROR TOLERANCE FOR CONVERT SDI=YES                 1.00    
     DISPLACEMENT COMPATIBILITY TOLERANCE FOR DCOUP ELEMENTS           1.000E-05
     ROTATION COMPATIBILITY TOLERANCE FOR DCOUP ELEMENTS               1.000E-05

 EQUILIBRIUM WILL BE CHECKED FOR SEVERE DISCONTINUITY ITERATIONS

 TIME INCREMENTATION CONTROL PARAMETERS:
     FIRST EQUILIBRIUM ITERATION FOR CONSECUTIVE DIVERGENCE CHECK              4
     EQUILIBRIUM ITERATION AT WHICH LOG. CONVERGENCE RATE CHECK BEGINS         8
     EQUILIBRIUM ITERATION AFTER WHICH ALTERNATE RESIDUAL IS USED              9
     MAXIMUM EQUILIBRIUM ITERATIONS ALLOWED                                   16
     EQUILIBRIUM ITERATION COUNT FOR CUT-BACK IN NEXT INCREMENT               10
     MAXIMUM EQUILIB. ITERS IN TWO INCREMENTS FOR TIME INCREMENT INCREASE      4
     MAXIMUM ITERATIONS FOR SEVERE DISCONTINUITIES                            50
     MAXIMUM ATTEMPTS ALLOWED IN AN INCREMENT                                  5
     MAXIMUM DISCON. ITERS IN TWO INCREMENTS FOR TIME INCREMENT INCREASE      50
     MAXIMUM CONTACT AUGMENTATIONS FOR *SURFACE BEHAVIOR,AUGMENTED LAGRANGE   50
     CUT-BACK FACTOR AFTER DIVERGENCE                                 0.2500    
     CUT-BACK FACTOR FOR TOO SLOW CONVERGENCE                         0.5000    
     CUT-BACK FACTOR AFTER TOO MANY EQUILIBRIUM ITERATIONS            0.7500    
     CUT-BACK FACTOR AFTER TOO MANY SEVERE DISCONTINUITY ITERATIONS   0.2500    
     CUT-BACK FACTOR AFTER PROBLEMS IN ELEMENT ASSEMBLY               0.2500    
     INCREASE FACTOR AFTER TWO INCREMENTS THAT CONVERGE QUICKLY        1.500    
     MAX. TIME INCREMENT INCREASE FACTOR ALLOWED                       1.500    
     MAX. TIME INCREMENT INCREASE FACTOR ALLOWED (DYNAMICS)            1.250    
     MAX. TIME INCREMENT INCREASE FACTOR ALLOWED (DIFFUSION)           2.000    
     MINIMUM TIME INCREMENT RATIO FOR EXTRAPOLATION TO OCCUR          0.1000    
     MAX. RATIO OF TIME INCREMENT TO STABILITY LIMIT                   1.000    
     FRACTION OF STABILITY LIMIT FOR NEW TIME INCREMENT               0.9500    
     TIME INCREMENT INCREASE FACTOR BEFORE A TIME POINT                1.000    
     GLOBAL STABILIZATION CONTROL IS NOT USED

          PRINT OF INCREMENT NUMBER, TIME, ETC., EVERY    1  INCREMENTS

     THE MAXIMUM NUMBER OF INCREMENTS IN THIS STEP IS                    1000

          LARGE DISPLACEMENT THEORY WILL BE USED

          UNSYMMETRIC MATRIX STORAGE AND SOLUTION WILL BE USED

     LINEAR EXTRAPOLATION WILL BE USED

     CHARACTERISTIC ELEMENT LENGTH      1.24    

     DETAILS REGARDING ACTUAL SOLUTION WAVEFRONT REQUESTED

     DETAILED OUTPUT OF DIAGNOSTICS TO DATABASE REQUESTED

     PRINT OF INCREMENT NUMBER, TIME, ETC., TO THE MESSAGE FILE EVERY     1  INCREMENTS

     ELEMENT OPERATIONS WILL BE CARRIED OUT IN PARALLEL USING  24 PROCESSORS

     COLLECTING STEP CONSTRAINT INFORMATION FOR OVERCONSTRAINT CHECKS


  INCREMENT     1 STARTS. ATTEMPT NUMBER  1, TIME INCREMENT  5.000E-02
 
     INITIAL ELEMENT LOAD BALANCE
            PROCESS    1   THREAD     NUMBER OF ELEMENTS
                              1            28
                              2            17
                              3            17
                              4            17
                              5            17
                              6            17
                              7            17
                              8            17
                              9            17
                             10            17
                             11            17
                             12            17
                             13            17
                             14            17
                             15            17
                             16            17
                             17            17
                             18            17
                             19            17
                             20            17
                             21            17
                             22            17
                             23            17
                             24            17

  NUMBER OF EQUATIONS =      1407     NUMBER OF RHS =    1
  NUMBER OF FLOATING PT. OPERATIONS =  9.92E+06

  USING THE DIRECT SOLVER WITH  24 PROCESSORS

     CHECK POINT   START OF SOLVER    

     CHECK POINT  END OF SOLVER       

       ELAPSED USER TIME (SEC)      =  0.19000    
       ELAPSED SYSTEM TIME (SEC)    =  3.00000E-02
       ELAPSED TOTAL CPU TIME (SEC) =  0.22000    
       ELAPSED WALLCLOCK TIME (SEC) =          0

               CONVERGENCE CHECKS FOR EQUILIBRIUM ITERATION     1


 AVERAGE FORCE                       27.3       TIME AVG. FORCE        27.3    
 ALL FORCE     RESIDUALS ARE ZERO
 LARGEST INCREMENT OF DISP.        -4.505E-03   AT NODE        993   DOF  3
 LARGEST CORRECTION TO DISP.       -4.505E-03   AT NODE        993   DOF  3
          THE FORCE     EQUILIBRIUM RESPONSE WAS LINEAR IN THIS INCREMENT

 AVERAGE MOMENT                      0.00       TIME AVG. MOMENT       33.8    
                                                (FROM FORCE     FIELD)
 ALL MOMENT    RESIDUALS ARE ZERO
 LARGEST INCREMENT OF ROTATION     -2.000E-04   AT NODE        307   DOF  5
 LARGEST CORRECTION TO ROTATION    -2.000E-04   AT NODE        307   DOF  5
          THERE IS ZERO MOMENT    EVERYWHERE

 ITERATION SUMMARY FOR THE INCREMENT:   1 TOTAL ITERATIONS, OF WHICH
   0 ARE SEVERE DISCONTINUITY ITERATIONS AND  1 ARE EQUILIBRIUM ITERATIONS.

 TIME INCREMENT COMPLETED  5.000E-02,  FRACTION OF STEP COMPLETED  5.000E-02
 STEP TIME COMPLETED       5.000E-02,  TOTAL TIME COMPLETED         1.05    


  INCREMENT     2 STARTS. ATTEMPT NUMBER  1, TIME INCREMENT  5.000E-02

  NUMBER OF EQUATIONS =      1407     NUMBER OF RHS =    1
  NUMBER OF FLOATING PT. OPERATIONS =  9.92E+06

  USING THE DIRECT SOLVER WITH  24 PROCESSORS

     CHECK POINT   START OF SOLVER    

     CHECK POINT  END OF SOLVER       

       ELAPSED USER TIME (SEC)      =  0.20000    
       ELAPSED SYSTEM TIME (SEC)    =  3.00000E-02
       ELAPSED TOTAL CPU TIME (SEC) =  0.23000    
       ELAPSED WALLCLOCK TIME (SEC) =          0

               CONVERGENCE CHECKS FOR EQUILIBRIUM ITERATION     1


 AVERAGE FORCE                       27.0       TIME AVG. FORCE        27.2    
 ALL FORCE     RESIDUALS ARE ZERO
 LARGEST INCREMENT OF DISP.        -4.506E-03   AT NODE        993   DOF  3
 LARGEST CORRECTION TO DISP.        1.211E-06   AT NODE        993   DOF  1
          THE FORCE     EQUILIBRIUM RESPONSE WAS LINEAR IN THIS INCREMENT

 AVERAGE MOMENT                      0.00       TIME AVG. MOMENT       33.8    
                                                (FROM FORCE     FIELD)
 ALL MOMENT    RESIDUALS ARE ZERO
 LARGEST INCREMENT OF ROTATION     -2.000E-04   AT NODE        307   DOF  5
 LARGEST CORRECTION TO ROTATION     2.168E-19   AT NODE        307   DOF  6
          THERE IS ZERO MOMENT    EVERYWHERE

 ITERATION SUMMARY FOR THE INCREMENT:   1 TOTAL ITERATIONS, OF WHICH
   0 ARE SEVERE DISCONTINUITY ITERATIONS AND  1 ARE EQUILIBRIUM ITERATIONS.

 TIME INCREMENT COMPLETED  5.000E-02,  FRACTION OF STEP COMPLETED  0.100    
 STEP TIME COMPLETED       0.100    ,  TOTAL TIME COMPLETED         1.10    


  INCREMENT     3 STARTS. ATTEMPT NUMBER  1, TIME INCREMENT  5.000E-02

  NUMBER OF EQUATIONS =      1407     NUMBER OF RHS =    1
  NUMBER OF FLOATING PT. OPERATIONS =  9.92E+06

  USING THE DIRECT SOLVER WITH  24 PROCESSORS

     CHECK POINT   START OF SOLVER    

     CHECK POINT  END OF SOLVER       

       ELAPSED USER TIME (SEC)      =  0.22000    
       ELAPSED SYSTEM TIME (SEC)    =  2.00000E-02
       ELAPSED TOTAL CPU TIME (SEC) =  0.24000    
       ELAPSED WALLCLOCK TIME (SEC) =          0

               CONVERGENCE CHECKS FOR EQUILIBRIUM ITERATION     1


 AVERAGE FORCE                       26.5       TIME AVG. FORCE        26.9    
 ALL FORCE     RESIDUALS ARE ZERO
 LARGEST INCREMENT OF DISP.        -4.506E-03   AT NODE        993   DOF  3
 LARGEST CORRECTION TO DISP.        1.211E-06   AT NODE        993   DOF  1
          THE FORCE     EQUILIBRIUM RESPONSE WAS LINEAR IN THIS INCREMENT

 AVERAGE MOMENT                      0.00       TIME AVG. MOMENT       33.6    
                                                (FROM FORCE     FIELD)
 ALL MOMENT    RESIDUALS ARE ZERO
 LARGEST INCREMENT OF ROTATION     -2.000E-04   AT NODE        307   DOF  5
 LARGEST CORRECTION TO ROTATION     1.735E-18   AT NODE        307   DOF  5
          THERE IS ZERO MOMENT    EVERYWHERE

 ITERATION SUMMARY FOR THE INCREMENT:   1 TOTAL ITERATIONS, OF WHICH
   0 ARE SEVERE DISCONTINUITY ITERATIONS AND  1 ARE EQUILIBRIUM ITERATIONS.

 TIME INCREMENT COMPLETED  5.000E-02,  FRACTION OF STEP COMPLETED  0.150    
 STEP TIME COMPLETED       0.150    ,  TOTAL TIME COMPLETED         1.15    


  INCREMENT     4 STARTS. ATTEMPT NUMBER  1, TIME INCREMENT  5.000E-02

  NUMBER OF EQUATIONS =      1407     NUMBER OF RHS =    1
  NUMBER OF FLOATING PT. OPERATIONS =  9.92E+06

  USING THE DIRECT SOLVER WITH  24 PROCESSORS

     CHECK POINT   START OF SOLVER    

     CHECK POINT  END OF SOLVER       

       ELAPSED USER TIME (SEC)      =  0.21000    
       ELAPSED SYSTEM TIME (SEC)    =  2.00000E-02
       ELAPSED TOTAL CPU TIME (SEC) =  0.23000    
       ELAPSED WALLCLOCK TIME (SEC) =          0

               CONVERGENCE CHECKS FOR EQUILIBRIUM ITERATION     1


 AVERAGE FORCE                       26.1       TIME AVG. FORCE        26.7    
 ALL FORCE     RESIDUALS ARE ZERO
 LARGEST INCREMENT OF DISP.        -4.506E-03   AT NODE        993   DOF  3
 LARGEST CORRECTION TO DISP.        1.211E-06   AT NODE        993   DOF  1
          THE FORCE     EQUILIBRIUM RESPONSE WAS LINEAR IN THIS INCREMENT

 AVERAGE MOMENT                      0.00       TIME AVG. MOMENT       33.3    
                                                (FROM FORCE     FIELD)
 ALL MOMENT    RESIDUALS ARE ZERO
 LARGEST INCREMENT OF ROTATION     -2.000E-04   AT NODE        307   DOF  5
 LARGEST CORRECTION TO ROTATION    -1.735E-18   AT NODE        307   DOF  5
          THERE IS ZERO MOMENT    EVERYWHERE

 ITERATION SUMMARY FOR THE INCREMENT:   1 TOTAL ITERATIONS, OF WHICH
   0 ARE SEVERE DISCONTINUITY ITERATIONS AND  1 ARE EQUILIBRIUM ITERATIONS.

 TIME INCREMENT COMPLETED  5.000E-02,  FRACTION OF STEP COMPLETED  0.200    
 STEP TIME COMPLETED       0.200    ,  TOTAL TIME COMPLETED         1.20    


  INCREMENT     5 STARTS. ATTEMPT NUMBER  1, TIME INCREMENT  5.000E-02

  NUMBER OF EQUATIONS =      1407     NUMBER OF RHS =    1
  NUMBER OF FLOATING PT. OPERATIONS =  9.92E+06

  USING THE DIRECT SOLVER WITH  24 PROCESSORS

     CHECK POINT   START OF SOLVER    

     CHECK POINT  END OF SOLVER       

       ELAPSED USER TIME (SEC)      =  0.17000    
       ELAPSED SYSTEM TIME (SEC)    =  3.00000E-02
       ELAPSED TOTAL CPU TIME (SEC) =  0.20000    
       ELAPSED WALLCLOCK TIME (SEC) =          0

               CONVERGENCE CHECKS FOR EQUILIBRIUM ITERATION     1


 AVERAGE FORCE                       25.7       TIME AVG. FORCE        26.5    
 ALL FORCE     RESIDUALS ARE ZERO
 LARGEST INCREMENT OF DISP.        -4.506E-03   AT NODE        993   DOF  3
 LARGEST CORRECTION TO DISP.        1.211E-06   AT NODE        993   DOF  1
          THE FORCE     EQUILIBRIUM RESPONSE WAS LINEAR IN THIS INCREMENT

 AVERAGE MOMENT                      0.00       TIME AVG. MOMENT       33.1    
                                                (FROM FORCE     FIELD)
 ALL MOMENT    RESIDUALS ARE ZERO
 LARGEST INCREMENT OF ROTATION     -2.000E-04   AT NODE        307   DOF  5
 LARGEST CORRECTION TO ROTATION     1.735E-18   AT NODE        307   DOF  5
          THERE IS ZERO MOMENT    EVERYWHERE

 ITERATION SUMMARY FOR THE INCREMENT:   1 TOTAL ITERATIONS, OF WHICH
   0 ARE SEVERE DISCONTINUITY ITERATIONS AND  1 ARE EQUILIBRIUM ITERATIONS.

 TIME INCREMENT COMPLETED  5.000E-02,  FRACTION OF STEP COMPLETED  0.250    
 STEP TIME COMPLETED       0.250    ,  TOTAL TIME COMPLETED         1.25    


  INCREMENT     6 STARTS. ATTEMPT NUMBER  1, TIME INCREMENT  5.000E-02

  NUMBER OF EQUATIONS =      1407     NUMBER OF RHS =    1
  NUMBER OF FLOATING PT. OPERATIONS =  9.92E+06

  USING THE DIRECT SOLVER WITH  24 PROCESSORS

     CHECK POINT   START OF SOLVER    

     CHECK POINT  END OF SOLVER       

       ELAPSED USER TIME (SEC)      =  0.18000    
       ELAPSED SYSTEM TIME (SEC)    =  3.00000E-02
       ELAPSED TOTAL CPU TIME (SEC) =  0.21000    
       ELAPSED WALLCLOCK TIME (SEC) =          0

               CONVERGENCE CHECKS FOR EQUILIBRIUM ITERATION     1


 AVERAGE FORCE                       25.3       TIME AVG. FORCE        26.3    
 ALL FORCE     RESIDUALS ARE ZERO
 LARGEST INCREMENT OF DISP.        -4.506E-03   AT NODE        993   DOF  3
 LARGEST CORRECTION TO DISP.        1.211E-06   AT NODE        993   DOF  1
          THE FORCE     EQUILIBRIUM RESPONSE WAS LINEAR IN THIS INCREMENT

 AVERAGE MOMENT                      0.00       TIME AVG. MOMENT       32.8    
                                                (FROM FORCE     FIELD)
 ALL MOMENT    RESIDUALS ARE ZERO
 LARGEST INCREMENT OF ROTATION     -2.000E-04   AT NODE        307   DOF  5
 LARGEST CORRECTION TO ROTATION    -1.735E-18   AT NODE        307   DOF  5
          THERE IS ZERO MOMENT    EVERYWHERE

 ITERATION SUMMARY FOR THE INCREMENT:   1 TOTAL ITERATIONS, OF WHICH
   0 ARE SEVERE DISCONTINUITY ITERATIONS AND  1 ARE EQUILIBRIUM ITERATIONS.

 TIME INCREMENT COMPLETED  5.000E-02,  FRACTION OF STEP COMPLETED  0.300    
 STEP TIME COMPLETED       0.300    ,  TOTAL TIME COMPLETED         1.30    


  INCREMENT     7 STARTS. ATTEMPT NUMBER  1, TIME INCREMENT  5.000E-02

  NUMBER OF EQUATIONS =      1407     NUMBER OF RHS =    1
  NUMBER OF FLOATING PT. OPERATIONS =  9.92E+06

  USING THE DIRECT SOLVER WITH  24 PROCESSORS

     CHECK POINT   START OF SOLVER    

     CHECK POINT  END OF SOLVER       

       ELAPSED USER TIME (SEC)      =  0.19000    
       ELAPSED SYSTEM TIME (SEC)    =  3.00000E-02
       ELAPSED TOTAL CPU TIME (SEC) =  0.22000    
       ELAPSED WALLCLOCK TIME (SEC) =          0

               CONVERGENCE CHECKS FOR EQUILIBRIUM ITERATION     1


 AVERAGE FORCE                       25.2       TIME AVG. FORCE        26.1    
 ALL FORCE     RESIDUALS ARE ZERO
 LARGEST INCREMENT OF DISP.        -4.506E-03   AT NODE        993   DOF  3
 LARGEST CORRECTION TO DISP.        1.211E-06   AT NODE        993   DOF  1
          THE FORCE     EQUILIBRIUM RESPONSE WAS LINEAR IN THIS INCREMENT

 AVERAGE MOMENT                      0.00       TIME AVG. MOMENT       32.6    
                                                (FROM FORCE     FIELD)
 ALL MOMENT    RESIDUALS ARE ZERO
 LARGEST INCREMENT OF ROTATION     -2.000E-04   AT NODE        307   DOF  5
 LARGEST CORRECTION TO ROTATION     1.735E-18   AT NODE        307   DOF  5
          THERE IS ZERO MOMENT    EVERYWHERE

 ITERATION SUMMARY FOR THE INCREMENT:   1 TOTAL ITERATIONS, OF WHICH
   0 ARE SEVERE DISCONTINUITY ITERATIONS AND  1 ARE EQUILIBRIUM ITERATIONS.

 TIME INCREMENT COMPLETED  5.000E-02,  FRACTION OF STEP COMPLETED  0.350    
 STEP TIME COMPLETED       0.350    ,  TOTAL TIME COMPLETED         1.35    


  INCREMENT     8 STARTS. ATTEMPT NUMBER  1, TIME INCREMENT  5.000E-02

  NUMBER OF EQUATIONS =      1407     NUMBER OF RHS =    1
  NUMBER OF FLOATING PT. OPERATIONS =  9.92E+06

  USING THE DIRECT SOLVER WITH  24 PROCESSORS

     CHECK POINT   START OF SOLVER    

     CHECK POINT  END OF SOLVER       

       ELAPSED USER TIME (SEC)      =  0.12000    
       ELAPSED SYSTEM TIME (SEC)    =  7.00000E-02
       ELAPSED TOTAL CPU TIME (SEC) =  0.19000    
       ELAPSED WALLCLOCK TIME (SEC) =          0

               CONVERGENCE CHECKS FOR EQUILIBRIUM ITERATION     1


 AVERAGE FORCE                       25.1       TIME AVG. FORCE        26.0    
 ALL FORCE     RESIDUALS ARE ZERO
 LARGEST INCREMENT OF DISP.        -4.506E-03   AT NODE        993   DOF  3
 LARGEST CORRECTION TO DISP.        1.211E-06   AT NODE        993   DOF  1
          THE FORCE     EQUILIBRIUM RESPONSE WAS LINEAR IN THIS INCREMENT

 AVERAGE MOMENT                      0.00       TIME AVG. MOMENT       32.4    
                                                (FROM FORCE     FIELD)
 ALL MOMENT    RESIDUALS ARE ZERO
 LARGEST INCREMENT OF ROTATION     -2.000E-04   AT NODE        307   DOF  5
 LARGEST CORRECTION TO ROTATION    -1.735E-18   AT NODE        307   DOF  5
          THERE IS ZERO MOMENT    EVERYWHERE

 ITERATION SUMMARY FOR THE INCREMENT:   1 TOTAL ITERATIONS, OF WHICH
   0 ARE SEVERE DISCONTINUITY ITERATIONS AND  1 ARE EQUILIBRIUM ITERATIONS.

 TIME INCREMENT COMPLETED  5.000E-02,  FRACTION OF STEP COMPLETED  0.400    
 STEP TIME COMPLETED       0.400    ,  TOTAL TIME COMPLETED         1.40    


  INCREMENT     9 STARTS. ATTEMPT NUMBER  1, TIME INCREMENT  5.000E-02

  NUMBER OF EQUATIONS =      1407     NUMBER OF RHS =    1
  NUMBER OF FLOATING PT. OPERATIONS =  9.92E+06

  USING THE DIRECT SOLVER WITH  24 PROCESSORS

     CHECK POINT   START OF SOLVER    

     CHECK POINT  END OF SOLVER       

       ELAPSED USER TIME (SEC)      =  0.19000    
       ELAPSED SYSTEM TIME (SEC)    =  3.00000E-02
       ELAPSED TOTAL CPU TIME (SEC) =  0.22000    
       ELAPSED WALLCLOCK TIME (SEC) =          0

               CONVERGENCE CHECKS FOR EQUILIBRIUM ITERATION     1


 AVERAGE FORCE                       25.0       TIME AVG. FORCE        25.9    
 ALL FORCE     RESIDUALS ARE ZERO
 LARGEST INCREMENT OF DISP.        -4.506E-03   AT NODE        993   DOF  3
 LARGEST CORRECTION TO DISP.        1.211E-06   AT NODE        993   DOF  1
          THE FORCE     EQUILIBRIUM RESPONSE WAS LINEAR IN THIS INCREMENT

 AVERAGE MOMENT                      0.00       TIME AVG. MOMENT       32.2    
                                                (FROM FORCE     FIELD)
 ALL MOMENT    RESIDUALS ARE ZERO
 LARGEST INCREMENT OF ROTATION     -2.000E-04   AT NODE        307   DOF  5
 LARGEST CORRECTION TO ROTATION    -1.735E-18   AT NODE        307   DOF  5
          THERE IS ZERO MOMENT    EVERYWHERE

 ITERATION SUMMARY FOR THE INCREMENT:   1 TOTAL ITERATIONS, OF WHICH
   0 ARE SEVERE DISCONTINUITY ITERATIONS AND  1 ARE EQUILIBRIUM ITERATIONS.

 TIME INCREMENT COMPLETED  5.000E-02,  FRACTION OF STEP COMPLETED  0.450    
 STEP TIME COMPLETED       0.450    ,  TOTAL TIME COMPLETED         1.45    


  INCREMENT    10 STARTS. ATTEMPT NUMBER  1, TIME INCREMENT  5.000E-02

  NUMBER OF EQUATIONS =      1407     NUMBER OF RHS =    1
  NUMBER OF FLOATING PT. OPERATIONS =  9.92E+06

  USING THE DIRECT SOLVER WITH  24 PROCESSORS

     CHECK POINT   START OF SOLVER    

     CHECK POINT  END OF SOLVER       

       ELAPSED USER TIME (SEC)      =  0.20000    
       ELAPSED SYSTEM TIME (SEC)    =  3.00000E-02
       ELAPSED TOTAL CPU TIME (SEC) =  0.23000    
       ELAPSED WALLCLOCK TIME (SEC) =          0

               CONVERGENCE CHECKS FOR EQUILIBRIUM ITERATION     1


 AVERAGE FORCE                       24.9       TIME AVG. FORCE        25.8    
 ALL FORCE     RESIDUALS ARE ZERO
 LARGEST INCREMENT OF DISP.        -4.506E-03   AT NODE        993   DOF  3
 LARGEST CORRECTION TO DISP.        1.212E-06   AT NODE        993   DOF  1
          THE FORCE     EQUILIBRIUM RESPONSE WAS LINEAR IN THIS INCREMENT

 AVERAGE MOMENT                      0.00       TIME AVG. MOMENT       32.1    
                                                (FROM FORCE     FIELD)
 ALL MOMENT    RESIDUALS ARE ZERO
 LARGEST INCREMENT OF ROTATION     -2.000E-04   AT NODE        307   DOF  5
 LARGEST CORRECTION TO ROTATION     1.735E-18   AT NODE        307   DOF  5
          THERE IS ZERO MOMENT    EVERYWHERE

 ITERATION SUMMARY FOR THE INCREMENT:   1 TOTAL ITERATIONS, OF WHICH
   0 ARE SEVERE DISCONTINUITY ITERATIONS AND  1 ARE EQUILIBRIUM ITERATIONS.

 TIME INCREMENT COMPLETED  5.000E-02,  FRACTION OF STEP COMPLETED  0.500    
 STEP TIME COMPLETED       0.500    ,  TOTAL TIME COMPLETED         1.50    


  INCREMENT    11 STARTS. ATTEMPT NUMBER  1, TIME INCREMENT  5.000E-02

  NUMBER OF EQUATIONS =      1407     NUMBER OF RHS =    1
  NUMBER OF FLOATING PT. OPERATIONS =  9.92E+06

  USING THE DIRECT SOLVER WITH  24 PROCESSORS

     CHECK POINT   START OF SOLVER    

     CHECK POINT  END OF SOLVER       

       ELAPSED USER TIME (SEC)      =  0.19000    
       ELAPSED SYSTEM TIME (SEC)    =  2.00000E-02
       ELAPSED TOTAL CPU TIME (SEC) =  0.21000    
       ELAPSED WALLCLOCK TIME (SEC) =          0

               CONVERGENCE CHECKS FOR EQUILIBRIUM ITERATION     1


 AVERAGE FORCE                       24.8       TIME AVG. FORCE        25.7    
 ALL FORCE     RESIDUALS ARE ZERO
 LARGEST INCREMENT OF DISP.        -4.506E-03   AT NODE        993   DOF  3
 LARGEST CORRECTION TO DISP.        1.212E-06   AT NODE        993   DOF  1
          THE FORCE     EQUILIBRIUM RESPONSE WAS LINEAR IN THIS INCREMENT

 AVERAGE MOMENT                      0.00       TIME AVG. MOMENT       31.9    
                                                (FROM FORCE     FIELD)
 ALL MOMENT    RESIDUALS ARE ZERO
 LARGEST INCREMENT OF ROTATION     -2.000E-04   AT NODE        307   DOF  5
 LARGEST CORRECTION TO ROTATION     3.469E-18   AT NODE        307   DOF  5
          THERE IS ZERO MOMENT    EVERYWHERE

 ITERATION SUMMARY FOR THE INCREMENT:   1 TOTAL ITERATIONS, OF WHICH
   0 ARE SEVERE DISCONTINUITY ITERATIONS AND  1 ARE EQUILIBRIUM ITERATIONS.

 TIME INCREMENT COMPLETED  5.000E-02,  FRACTION OF STEP COMPLETED  0.550    
 STEP TIME COMPLETED       0.550    ,  TOTAL TIME COMPLETED         1.55    


  INCREMENT    12 STARTS. ATTEMPT NUMBER  1, TIME INCREMENT  5.000E-02

  NUMBER OF EQUATIONS =      1407     NUMBER OF RHS =    1
  NUMBER OF FLOATING PT. OPERATIONS =  9.92E+06

  USING THE DIRECT SOLVER WITH  24 PROCESSORS

     CHECK POINT   START OF SOLVER    

     CHECK POINT  END OF SOLVER       

       ELAPSED USER TIME (SEC)      =  0.22000    
       ELAPSED SYSTEM TIME (SEC)    =  4.00000E-02
       ELAPSED TOTAL CPU TIME (SEC) =  0.26000    
       ELAPSED WALLCLOCK TIME (SEC) =          0

               CONVERGENCE CHECKS FOR EQUILIBRIUM ITERATION     1


 AVERAGE FORCE                       24.7       TIME AVG. FORCE        25.6    
 ALL FORCE     RESIDUALS ARE ZERO
 LARGEST INCREMENT OF DISP.        -4.506E-03   AT NODE        993   DOF  3
 LARGEST CORRECTION TO DISP.        1.212E-06   AT NODE        993   DOF  1
          THE FORCE     EQUILIBRIUM RESPONSE WAS LINEAR IN THIS INCREMENT

 AVERAGE MOMENT                      0.00       TIME AVG. MOMENT       31.8    
                                                (FROM FORCE     FIELD)
 ALL MOMENT    RESIDUALS ARE ZERO
 LARGEST INCREMENT OF ROTATION     -2.000E-04   AT NODE        307   DOF  5
 LARGEST CORRECTION TO ROTATION    -3.469E-18   AT NODE        307   DOF  5
          THERE IS ZERO MOMENT    EVERYWHERE

 ITERATION SUMMARY FOR THE INCREMENT:   1 TOTAL ITERATIONS, OF WHICH
   0 ARE SEVERE DISCONTINUITY ITERATIONS AND  1 ARE EQUILIBRIUM ITERATIONS.

 TIME INCREMENT COMPLETED  5.000E-02,  FRACTION OF STEP COMPLETED  0.600    
 STEP TIME COMPLETED       0.600    ,  TOTAL TIME COMPLETED         1.60    


  INCREMENT    13 STARTS. ATTEMPT NUMBER  1, TIME INCREMENT  5.000E-02

  NUMBER OF EQUATIONS =      1407     NUMBER OF RHS =    1
  NUMBER OF FLOATING PT. OPERATIONS =  9.92E+06

  USING THE DIRECT SOLVER WITH  24 PROCESSORS

     CHECK POINT   START OF SOLVER    

     CHECK POINT  END OF SOLVER       

       ELAPSED USER TIME (SEC)      =  0.22000    
       ELAPSED SYSTEM TIME (SEC)    =  4.00000E-02
       ELAPSED TOTAL CPU TIME (SEC) =  0.26000    
       ELAPSED WALLCLOCK TIME (SEC) =          0

               CONVERGENCE CHECKS FOR EQUILIBRIUM ITERATION     1


 AVERAGE FORCE                       24.6       TIME AVG. FORCE        25.5    
 ALL FORCE     RESIDUALS ARE ZERO
 LARGEST INCREMENT OF DISP.        -4.506E-03   AT NODE        993   DOF  3
 LARGEST CORRECTION TO DISP.        1.212E-06   AT NODE        993   DOF  1
          THE FORCE     EQUILIBRIUM RESPONSE WAS LINEAR IN THIS INCREMENT

 AVERAGE MOMENT                      0.00       TIME AVG. MOMENT       31.7    
                                                (FROM FORCE     FIELD)
 ALL MOMENT    RESIDUALS ARE ZERO
 LARGEST INCREMENT OF ROTATION     -2.000E-04   AT NODE        307   DOF  5
 LARGEST CORRECTION TO ROTATION    -7.127E-31   AT NODE        307   DOF  5
          THERE IS ZERO MOMENT    EVERYWHERE

 ITERATION SUMMARY FOR THE INCREMENT:   1 TOTAL ITERATIONS, OF WHICH
   0 ARE SEVERE DISCONTINUITY ITERATIONS AND  1 ARE EQUILIBRIUM ITERATIONS.

 TIME INCREMENT COMPLETED  5.000E-02,  FRACTION OF STEP COMPLETED  0.650    
 STEP TIME COMPLETED       0.650    ,  TOTAL TIME COMPLETED         1.65    


  INCREMENT    14 STARTS. ATTEMPT NUMBER  1, TIME INCREMENT  5.000E-02

  NUMBER OF EQUATIONS =      1407     NUMBER OF RHS =    1
  NUMBER OF FLOATING PT. OPERATIONS =  9.92E+06

  USING THE DIRECT SOLVER WITH  24 PROCESSORS

     CHECK POINT   START OF SOLVER    

     CHECK POINT  END OF SOLVER       

       ELAPSED USER TIME (SEC)      =  0.22000    
       ELAPSED SYSTEM TIME (SEC)    =  4.00000E-02
       ELAPSED TOTAL CPU TIME (SEC) =  0.26000    
       ELAPSED WALLCLOCK TIME (SEC) =          0

               CONVERGENCE CHECKS FOR EQUILIBRIUM ITERATION     1


 AVERAGE FORCE                       24.4       TIME AVG. FORCE        25.5    
 ALL FORCE     RESIDUALS ARE ZERO
 LARGEST INCREMENT OF DISP.        -4.506E-03   AT NODE        993   DOF  3
 LARGEST CORRECTION TO DISP.        1.212E-06   AT NODE        993   DOF  1
          THE FORCE     EQUILIBRIUM RESPONSE WAS LINEAR IN THIS INCREMENT

 AVERAGE MOMENT                      0.00       TIME AVG. MOMENT       31.6    
                                                (FROM FORCE     FIELD)
 ALL MOMENT    RESIDUALS ARE ZERO
 LARGEST INCREMENT OF ROTATION     -2.000E-04   AT NODE        307   DOF  5
 LARGEST CORRECTION TO ROTATION     8.674E-19   AT NODE        307   DOF  4
          THERE IS ZERO MOMENT    EVERYWHERE

 ITERATION SUMMARY FOR THE INCREMENT:   1 TOTAL ITERATIONS, OF WHICH
   0 ARE SEVERE DISCONTINUITY ITERATIONS AND  1 ARE EQUILIBRIUM ITERATIONS.

 TIME INCREMENT COMPLETED  5.000E-02,  FRACTION OF STEP COMPLETED  0.700    
 STEP TIME COMPLETED       0.700    ,  TOTAL TIME COMPLETED         1.70    


  INCREMENT    15 STARTS. ATTEMPT NUMBER  1, TIME INCREMENT  5.000E-02

  NUMBER OF EQUATIONS =      1407     NUMBER OF RHS =    1
  NUMBER OF FLOATING PT. OPERATIONS =  9.92E+06

  USING THE DIRECT SOLVER WITH  24 PROCESSORS

     CHECK POINT   START OF SOLVER    

     CHECK POINT  END OF SOLVER       

       ELAPSED USER TIME (SEC)      =  0.22000    
       ELAPSED SYSTEM TIME (SEC)    =  3.00000E-02
       ELAPSED TOTAL CPU TIME (SEC) =  0.25000    
       ELAPSED WALLCLOCK TIME (SEC) =          0

               CONVERGENCE CHECKS FOR EQUILIBRIUM ITERATION     1


 AVERAGE FORCE                       24.3       TIME AVG. FORCE        25.4    
 ALL FORCE     RESIDUALS ARE ZERO
 LARGEST INCREMENT OF DISP.        -4.506E-03   AT NODE        993   DOF  3
 LARGEST CORRECTION TO DISP.        1.212E-06   AT NODE        993   DOF  1
          THE FORCE     EQUILIBRIUM RESPONSE WAS LINEAR IN THIS INCREMENT

 AVERAGE MOMENT                      0.00       TIME AVG. MOMENT       31.5    
                                                (FROM FORCE     FIELD)
 ALL MOMENT    RESIDUALS ARE ZERO
 LARGEST INCREMENT OF ROTATION     -2.000E-04   AT NODE        307   DOF  5
 LARGEST CORRECTION TO ROTATION     4.337E-19   AT NODE        307   DOF  6
          THERE IS ZERO MOMENT    EVERYWHERE

 ITERATION SUMMARY FOR THE INCREMENT:   1 TOTAL ITERATIONS, OF WHICH
   0 ARE SEVERE DISCONTINUITY ITERATIONS AND  1 ARE EQUILIBRIUM ITERATIONS.

 TIME INCREMENT COMPLETED  5.000E-02,  FRACTION OF STEP COMPLETED  0.750    
 STEP TIME COMPLETED       0.750    ,  TOTAL TIME COMPLETED         1.75    


  INCREMENT    16 STARTS. ATTEMPT NUMBER  1, TIME INCREMENT  5.000E-02

  NUMBER OF EQUATIONS =      1407     NUMBER OF RHS =    1
  NUMBER OF FLOATING PT. OPERATIONS =  9.92E+06

  USING THE DIRECT SOLVER WITH  24 PROCESSORS

     CHECK POINT   START OF SOLVER    

     CHECK POINT  END OF SOLVER       

       ELAPSED USER TIME (SEC)      =  0.18000    
       ELAPSED SYSTEM TIME (SEC)    =  3.00000E-02
       ELAPSED TOTAL CPU TIME (SEC) =  0.21000    
       ELAPSED WALLCLOCK TIME (SEC) =          0

               CONVERGENCE CHECKS FOR EQUILIBRIUM ITERATION     1


 AVERAGE FORCE                       24.2       TIME AVG. FORCE        25.3    
 ALL FORCE     RESIDUALS ARE ZERO
 LARGEST INCREMENT OF DISP.        -4.506E-03   AT NODE        993   DOF  3
 LARGEST CORRECTION TO DISP.        1.212E-06   AT NODE        993   DOF  1
          THE FORCE     EQUILIBRIUM RESPONSE WAS LINEAR IN THIS INCREMENT

 AVERAGE MOMENT                      0.00       TIME AVG. MOMENT       31.4    
                                                (FROM FORCE     FIELD)
 ALL MOMENT    RESIDUALS ARE ZERO
 LARGEST INCREMENT OF ROTATION     -2.000E-04   AT NODE        307   DOF  5
 LARGEST CORRECTION TO ROTATION    -8.674E-19   AT NODE        307   DOF  4
          THERE IS ZERO MOMENT    EVERYWHERE

 ITERATION SUMMARY FOR THE INCREMENT:   1 TOTAL ITERATIONS, OF WHICH
   0 ARE SEVERE DISCONTINUITY ITERATIONS AND  1 ARE EQUILIBRIUM ITERATIONS.

 TIME INCREMENT COMPLETED  5.000E-02,  FRACTION OF STEP COMPLETED  0.800    
 STEP TIME COMPLETED       0.800    ,  TOTAL TIME COMPLETED         1.80    


  INCREMENT    17 STARTS. ATTEMPT NUMBER  1, TIME INCREMENT  5.000E-02

  NUMBER OF EQUATIONS =      1407     NUMBER OF RHS =    1
  NUMBER OF FLOATING PT. OPERATIONS =  9.92E+06

  USING THE DIRECT SOLVER WITH  24 PROCESSORS

     CHECK POINT   START OF SOLVER    

     CHECK POINT  END OF SOLVER       

       ELAPSED USER TIME (SEC)      =  0.19000    
       ELAPSED SYSTEM TIME (SEC)    =  5.00000E-02
       ELAPSED TOTAL CPU TIME (SEC) =  0.24000    
       ELAPSED WALLCLOCK TIME (SEC) =          1

               CONVERGENCE CHECKS FOR EQUILIBRIUM ITERATION     1


 AVERAGE FORCE                       24.1       TIME AVG. FORCE        25.2    
 ALL FORCE     RESIDUALS ARE ZERO
 LARGEST INCREMENT OF DISP.        -4.506E-03   AT NODE        993   DOF  3
 LARGEST CORRECTION TO DISP.        1.212E-06   AT NODE        993   DOF  1
          THE FORCE     EQUILIBRIUM RESPONSE WAS LINEAR IN THIS INCREMENT

 AVERAGE MOMENT                      0.00       TIME AVG. MOMENT       31.3    
                                                (FROM FORCE     FIELD)
 ALL MOMENT    RESIDUALS ARE ZERO
 LARGEST INCREMENT OF ROTATION     -2.000E-04   AT NODE        307   DOF  5
 LARGEST CORRECTION TO ROTATION     4.337E-19   AT NODE        307   DOF  4
          THERE IS ZERO MOMENT    EVERYWHERE

 ITERATION SUMMARY FOR THE INCREMENT:   1 TOTAL ITERATIONS, OF WHICH
   0 ARE SEVERE DISCONTINUITY ITERATIONS AND  1 ARE EQUILIBRIUM ITERATIONS.

 TIME INCREMENT COMPLETED  5.000E-02,  FRACTION OF STEP COMPLETED  0.850    
 STEP TIME COMPLETED       0.850    ,  TOTAL TIME COMPLETED         1.85    


  INCREMENT    18 STARTS. ATTEMPT NUMBER  1, TIME INCREMENT  5.000E-02

  NUMBER OF EQUATIONS =      1407     NUMBER OF RHS =    1
  NUMBER OF FLOATING PT. OPERATIONS =  9.92E+06

  USING THE DIRECT SOLVER WITH  24 PROCESSORS

     CHECK POINT   START OF SOLVER    

     CHECK POINT  END OF SOLVER       

       ELAPSED USER TIME (SEC)      =  0.21000    
       ELAPSED SYSTEM TIME (SEC)    =  3.00000E-02
       ELAPSED TOTAL CPU TIME (SEC) =  0.24000    
       ELAPSED WALLCLOCK TIME (SEC) =          0

               CONVERGENCE CHECKS FOR EQUILIBRIUM ITERATION     1


 AVERAGE FORCE                       24.0       TIME AVG. FORCE        25.2    
 ALL FORCE     RESIDUALS ARE ZERO
 LARGEST INCREMENT OF DISP.        -4.506E-03   AT NODE        993   DOF  3
 LARGEST CORRECTION TO DISP.        1.212E-06   AT NODE        993   DOF  1
          THE FORCE     EQUILIBRIUM RESPONSE WAS LINEAR IN THIS INCREMENT

 AVERAGE MOMENT                      0.00       TIME AVG. MOMENT       31.2    
                                                (FROM FORCE     FIELD)
 ALL MOMENT    RESIDUALS ARE ZERO
 LARGEST INCREMENT OF ROTATION     -2.000E-04   AT NODE        307   DOF  5
 LARGEST CORRECTION TO ROTATION     1.735E-18   AT NODE        307   DOF  5
          THERE IS ZERO MOMENT    EVERYWHERE

 ITERATION SUMMARY FOR THE INCREMENT:   1 TOTAL ITERATIONS, OF WHICH
   0 ARE SEVERE DISCONTINUITY ITERATIONS AND  1 ARE EQUILIBRIUM ITERATIONS.

 TIME INCREMENT COMPLETED  5.000E-02,  FRACTION OF STEP COMPLETED  0.900    
 STEP TIME COMPLETED       0.900    ,  TOTAL TIME COMPLETED         1.90    


  INCREMENT    19 STARTS. ATTEMPT NUMBER  1, TIME INCREMENT  5.000E-02

  NUMBER OF EQUATIONS =      1407     NUMBER OF RHS =    1
  NUMBER OF FLOATING PT. OPERATIONS =  9.92E+06

  USING THE DIRECT SOLVER WITH  24 PROCESSORS

     CHECK POINT   START OF SOLVER    

     CHECK POINT  END OF SOLVER       

       ELAPSED USER TIME (SEC)      =  0.19000    
       ELAPSED SYSTEM TIME (SEC)    =  4.00000E-02
       ELAPSED TOTAL CPU TIME (SEC) =  0.23000    
       ELAPSED WALLCLOCK TIME (SEC) =          0

               CONVERGENCE CHECKS FOR EQUILIBRIUM ITERATION     1


 AVERAGE FORCE                       23.8       TIME AVG. FORCE        25.1    
 ALL FORCE     RESIDUALS ARE ZERO
 LARGEST INCREMENT OF DISP.        -4.506E-03   AT NODE        993   DOF  3
 LARGEST CORRECTION TO DISP.        1.212E-06   AT NODE        993   DOF  1
          THE FORCE     EQUILIBRIUM RESPONSE WAS LINEAR IN THIS INCREMENT

 AVERAGE MOMENT                      0.00       TIME AVG. MOMENT       31.1    
                                                (FROM FORCE     FIELD)
 ALL MOMENT    RESIDUALS ARE ZERO
 LARGEST INCREMENT OF ROTATION     -2.000E-04   AT NODE        307   DOF  5
 LARGEST CORRECTION TO ROTATION    -1.735E-18   AT NODE        307   DOF  5
          THERE IS ZERO MOMENT    EVERYWHERE

 ITERATION SUMMARY FOR THE INCREMENT:   1 TOTAL ITERATIONS, OF WHICH
   0 ARE SEVERE DISCONTINUITY ITERATIONS AND  1 ARE EQUILIBRIUM ITERATIONS.

 TIME INCREMENT COMPLETED  5.000E-02,  FRACTION OF STEP COMPLETED  0.950    
 STEP TIME COMPLETED       0.950    ,  TOTAL TIME COMPLETED         1.95    


  INCREMENT    20 STARTS. ATTEMPT NUMBER  1, TIME INCREMENT  5.000E-02

  NUMBER OF EQUATIONS =      1407     NUMBER OF RHS =    1
  NUMBER OF FLOATING PT. OPERATIONS =  9.92E+06

  USING THE DIRECT SOLVER WITH  24 PROCESSORS

     CHECK POINT   START OF SOLVER    

     CHECK POINT  END OF SOLVER       

       ELAPSED USER TIME (SEC)      =  0.23000    
       ELAPSED SYSTEM TIME (SEC)    =  3.00000E-02
       ELAPSED TOTAL CPU TIME (SEC) =  0.26000    
       ELAPSED WALLCLOCK TIME (SEC) =          0

               CONVERGENCE CHECKS FOR EQUILIBRIUM ITERATION     1


 AVERAGE FORCE                       23.7       TIME AVG. FORCE        25.0    
 ALL FORCE     RESIDUALS ARE ZERO
 LARGEST INCREMENT OF DISP.        -4.506E-03   AT NODE        993   DOF  3
 LARGEST CORRECTION TO DISP.        1.213E-06   AT NODE        993   DOF  1
          THE FORCE     EQUILIBRIUM RESPONSE WAS LINEAR IN THIS INCREMENT

 AVERAGE MOMENT                      0.00       TIME AVG. MOMENT       31.1    
                                                (FROM FORCE     FIELD)
 ALL MOMENT    RESIDUALS ARE ZERO
 LARGEST INCREMENT OF ROTATION     -2.000E-04   AT NODE        307   DOF  5
 LARGEST CORRECTION TO ROTATION     5.692E-19   AT NODE        307   DOF  5
          THERE IS ZERO MOMENT    EVERYWHERE

 ITERATION SUMMARY FOR THE INCREMENT:   1 TOTAL ITERATIONS, OF WHICH
   0 ARE SEVERE DISCONTINUITY ITERATIONS AND  1 ARE EQUILIBRIUM ITERATIONS.

 TIME INCREMENT COMPLETED  5.000E-02,  FRACTION OF STEP COMPLETED   1.00    
 STEP TIME COMPLETED        1.00    ,  TOTAL TIME COMPLETED         2.00    
1

   Abaqus 2021.HF4                                  Date 24-Feb-2023   Time 15:46:11
   For use by UNIVERSITAET BERN under license from Dassault Systemes or its subsidiary.

                                                                                 
                                                                                 
 STEP    3     INCREMENT     1     STEP TIME    0.00    


                        S T E P       3     S T A T I C   A N A L Y S I S


                                                                                          

     AUTOMATIC TIME CONTROL WITH -
          A SUGGESTED INITIAL TIME INCREMENT OF                5.000E-02
          AND A TOTAL TIME PERIOD OF                            1.00    
          THE MINIMUM TIME INCREMENT ALLOWED IS                5.000E-05
[...]
   ELEMENT 377 IS DISTORTING EXCESSIVELY.
   ELEMENT 377 IS DISTORTING EXCESSIVELY.
   ELEMENT 377 IS DISTORTING EXCESSIVELY.
   ELEMENT 377 IS DISTORTING EXCESSIVELY.
   ELEMENT 377 IS DISTORTING EXCESSIVELY.
   ELEMENT 378 IS DISTORTING EXCESSIVELY.
   ELEMENT 378 IS DISTORTING EXCESSIVELY.
   ELEMENT 378 IS DISTORTING EXCESSIVELY.
   ELEMENT 378 IS DISTORTING EXCESSIVELY.
   ELEMENT 933 IS DISTORTING EXCESSIVELY.
   ELEMENT 933 IS DISTORTING EXCESSIVELY.
   ELEMENT 933 IS DISTORTING EXCESSIVELY.
   ELEMENT 933 IS DISTORTING EXCESSIVELY.
   ELEMENT 933 IS DISTORTING EXCESSIVELY.
   ELEMENT 933 IS DISTORTING EXCESSIVELY.
   ELEMENT 933 IS DISTORTING EXCESSIVELY.
   ELEMENT 933 IS DISTORTING EXCESSIVELY.
   ELEMENT 934 IS DISTORTING EXCESSIVELY.
   ELEMENT 934 IS DISTORTING EXCESSIVELY.
   ELEMENT 934 IS DISTORTING EXCESSIVELY.
   ELEMENT 934 IS DISTORTING EXCESSIVELY.
   ELEMENT 934 IS DISTORTING EXCESSIVELY.
   ELEMENT 934 IS DISTORTING EXCESSIVELY.
   ELEMENT 934 IS DISTORTING EXCESSIVELY.
   ELEMENT 934 IS DISTORTING EXCESSIVELY.
   ELEMENT 935 IS DISTORTING EXCESSIVELY.
   ELEMENT 935 IS DISTORTING EXCESSIVELY.
   ELEMENT 935 IS DISTORTING EXCESSIVELY.
   ELEMENT 935 IS DISTORTING EXCESSIVELY.
   ELEMENT 854 IS DISTORTING EXCESSIVELY.
   ELEMENT 854 IS DISTORTING EXCESSIVELY.
   ELEMENT 854 IS DISTORTING EXCESSIVELY.
   ELEMENT 854 IS DISTORTING EXCESSIVELY.
   ELEMENT 854 IS DISTORTING EXCESSIVELY.
   ELEMENT 854 IS DISTORTING EXCESSIVELY.
   ELEMENT 854 IS DISTORTING EXCESSIVELY.
   ELEMENT 854 IS DISTORTING EXCESSIVELY.
   ELEMENT 855 IS DISTORTING EXCESSIVELY.
   ELEMENT 855 IS DISTORTING EXCESSIVELY.
   ELEMENT 855 IS DISTORTING EXCESSIVELY.
   ELEMENT 855 IS DISTORTING EXCESSIVELY.
   ELEMENT 855 IS DISTORTING EXCESSIVELY.
   ELEMENT 855 IS DISTORTING EXCESSIVELY.
   ELEMENT 855 IS DISTORTING EXCESSIVELY.
   ELEMENT 855 IS DISTORTING EXCESSIVELY.
   ELEMENT 491 IS DISTORTING EXCESSIVELY.
   ELEMENT 491 IS DISTORTING EXCESSIVELY.
   ELEMENT 491 IS DISTORTING EXCESSIVELY.
   ELEMENT 491 IS DISTORTING EXCESSIVELY.
   ELEMENT 491 IS DISTORTING EXCESSIVELY.
   ELEMENT 491 IS DISTORTING EXCESSIVELY.
   ELEMENT 491 IS DISTORTING EXCESSIVELY.
   ELEMENT 491 IS DISTORTING EXCESSIVELY.
   ELEMENT 492 IS DISTORTING EXCESSIVELY.
   ELEMENT 492 IS DISTORTING EXCESSIVELY.
   ELEMENT 492 IS DISTORTING EXCESSIVELY.
   ELEMENT 492 IS DISTORTING EXCESSIVELY.
   ELEMENT 492 IS DISTORTING EXCESSIVELY.
   ELEMENT 492 IS DISTORTING EXCESSIVELY.
   ELEMENT 492 IS DISTORTING EXCESSIVELY.
   ELEMENT 492 IS DISTORTING EXCESSIVELY.
   ELEMENT 493 IS DISTORTING EXCESSIVELY.
   ELEMENT 493 IS DISTORTING EXCESSIVELY.
   ELEMENT 493 IS DISTORTING EXCESSIVELY.
   ELEMENT 493 IS DISTORTING EXCESSIVELY.
   ELEMENT 493 IS DISTORTING EXCESSIVELY.
   ELEMENT 493 IS DISTORTING EXCESSIVELY.
   ELEMENT 493 IS DISTORTING EXCESSIVELY.
   ELEMENT 493 IS DISTORTING EXCESSIVELY.
   ELEMENT 494 IS DISTORTING EXCESSIVELY.
   ELEMENT 494 IS DISTORTING EXCESSIVELY.
   ELEMENT 494 IS DISTORTING EXCESSIVELY.
   ELEMENT 494 IS DISTORTING EXCESSIVELY.
   ELEMENT 494 IS DISTORTING EXCESSIVELY.
   ELEMENT 494 IS DISTORTING EXCESSIVELY.
   ELEMENT 494 IS DISTORTING EXCESSIVELY.
   ELEMENT 494 IS DISTORTING EXCESSIVELY.
   ELEMENT 689 IS DISTORTING EXCESSIVELY.
   ELEMENT 689 IS DISTORTING EXCESSIVELY.
   ELEMENT 689 IS DISTORTING EXCESSIVELY.
   ELEMENT 689 IS DISTORTING EXCESSIVELY.
   ELEMENT 689 IS DISTORTING EXCESSIVELY.
   ELEMENT 689 IS DISTORTING EXCESSIVELY.
   ELEMENT 689 IS DISTORTING EXCESSIVELY.
   ELEMENT 689 IS DISTORTING EXCESSIVELY.
   ELEMENT 690 IS DISTORTING EXCESSIVELY.
   ELEMENT 690 IS DISTORTING EXCESSIVELY.
   ELEMENT 690 IS DISTORTING EXCESSIVELY.
   ELEMENT 690 IS DISTORTING EXCESSIVELY.
   ELEMENT 690 IS DISTORTING EXCESSIVELY.
   ELEMENT 690 IS DISTORTING EXCESSIVELY.
   ELEMENT 690 IS DISTORTING EXCESSIVELY.
   ELEMENT 690 IS DISTORTING EXCESSIVELY.
   ELEMENT 691 IS DISTORTING EXCESSIVELY.
   ELEMENT 691 IS DISTORTING EXCESSIVELY.
   ELEMENT 691 IS DISTORTING EXCESSIVELY.
   ELEMENT 691 IS DISTORTING EXCESSIVELY.
   ELEMENT 691 IS DISTORTING EXCESSIVELY.
   ELEMENT 691 IS DISTORTING EXCESSIVELY.
   ELEMENT 691 IS DISTORTING EXCESSIVELY.
   ELEMENT 691 IS DISTORTING EXCESSIVELY.
   ELEMENT 692 IS DISTORTING EXCESSIVELY.
   ELEMENT 692 IS DISTORTING EXCESSIVELY.
   ELEMENT 692 IS DISTORTING EXCESSIVELY.
   ELEMENT 692 IS DISTORTING EXCESSIVELY.
   ELEMENT 692 IS DISTORTING EXCESSIVELY.
   ELEMENT 692 IS DISTORTING EXCESSIVELY.
   ELEMENT 692 IS DISTORTING EXCESSIVELY.
   ELEMENT 692 IS DISTORTING EXCESSIVELY.
   ELEMENT 693 IS DISTORTING EXCESSIVELY.
   ELEMENT 693 IS DISTORTING EXCESSIVELY.
   ELEMENT 693 IS DISTORTING EXCESSIVELY.
   ELEMENT 693 IS DISTORTING EXCESSIVELY.
   ELEMENT 693 IS DISTORTING EXCESSIVELY.
   ELEMENT 693 IS DISTORTING EXCESSIVELY.
   ELEMENT 693 IS DISTORTING EXCESSIVELY.
   ELEMENT 693 IS DISTORTING EXCESSIVELY.
   ELEMENT 694 IS DISTORTING EXCESSIVELY.
   ELEMENT 694 IS DISTORTING EXCESSIVELY.
   ELEMENT 694 IS DISTORTING EXCESSIVELY.
   ELEMENT 694 IS DISTORTING EXCESSIVELY.
   ELEMENT 694 IS DISTORTING EXCESSIVELY.
   ELEMENT 694 IS DISTORTING EXCESSIVELY.
   ELEMENT 694 IS DISTORTING EXCESSIVELY.
   ELEMENT 694 IS DISTORTING EXCESSIVELY.
   ELEMENT 695 IS DISTORTING EXCESSIVELY.
   ELEMENT 695 IS DISTORTING EXCESSIVELY.
   ELEMENT 695 IS DISTORTING EXCESSIVELY.
   ELEMENT 695 IS DISTORTING EXCESSIVELY.
   ELEMENT 695 IS DISTORTING EXCESSIVELY.
   ELEMENT 695 IS DISTORTING EXCESSIVELY.
   ELEMENT 695 IS DISTORTING EXCESSIVELY.
   ELEMENT 695 IS DISTORTING EXCESSIVELY.
   ELEMENT 696 IS DISTORTING EXCESSIVELY.
   ELEMENT 696 IS DISTORTING EXCESSIVELY.
   ELEMENT 696 IS DISTORTING EXCESSIVELY.
   ELEMENT 696 IS DISTORTING EXCESSIVELY.
   ELEMENT 696 IS DISTORTING EXCESSIVELY.
   ELEMENT 696 IS DISTORTING EXCESSIVELY.
   ELEMENT 696 IS DISTORTING EXCESSIVELY.
   ELEMENT 413 IS DISTORTING EXCESSIVELY.
   ELEMENT 413 IS DISTORTING EXCESSIVELY.
   ELEMENT 413 IS DISTORTING EXCESSIVELY.
   ELEMENT 413 IS DISTORTING EXCESSIVELY.
   ELEMENT 413 IS DISTORTING EXCESSIVELY.
   ELEMENT 413 IS DISTORTING EXCESSIVELY.
   ELEMENT 413 IS DISTORTING EXCESSIVELY.
   ELEMENT 413 IS DISTORTING EXCESSIVELY.
   ELEMENT 414 IS DISTORTING EXCESSIVELY.
   ELEMENT 414 IS DISTORTING EXCESSIVELY.
   ELEMENT 414 IS DISTORTING EXCESSIVELY.
   ELEMENT 414 IS DISTORTING EXCESSIVELY.
   ELEMENT 414 IS DISTORTING EXCESSIVELY.
   ELEMENT 414 IS DISTORTING EXCESSIVELY.
   ELEMENT 414 IS DISTORTING EXCESSIVELY.
   ELEMENT 414 IS DISTORTING EXCESSIVELY.
   ELEMENT 415 IS DISTORTING EXCESSIVELY.
   ELEMENT 415 IS DISTORTING EXCESSIVELY.
   ELEMENT 415 IS DISTORTING EXCESSIVELY.
   ELEMENT 415 IS DISTORTING EXCESSIVELY.
   ELEMENT 415 IS DISTORTING EXCESSIVELY.
   ELEMENT 415 IS DISTORTING EXCESSIVELY.
   ELEMENT 415 IS DISTORTING EXCESSIVELY.
   ELEMENT 415 IS DISTORTING EXCESSIVELY.
   ELEMENT 416 IS DISTORTING EXCESSIVELY.
   ELEMENT 416 IS DISTORTING EXCESSIVELY.
   ELEMENT 416 IS DISTORTING EXCESSIVELY.
   ELEMENT 416 IS DISTORTING EXCESSIVELY.
   ELEMENT 416 IS DISTORTING EXCESSIVELY.
   ELEMENT 416 IS DISTORTING EXCESSIVELY.
   ELEMENT 416 IS DISTORTING EXCESSIVELY.
   ELEMENT 416 IS DISTORTING EXCESSIVELY.
   ELEMENT 417 IS DISTORTING EXCESSIVELY.
   ELEMENT 417 IS DISTORTING EXCESSIVELY.
   ELEMENT 417 IS DISTORTING EXCESSIVELY.
   ELEMENT 417 IS DISTORTING EXCESSIVELY.
   ELEMENT 417 IS DISTORTING EXCESSIVELY.
   ELEMENT 417 IS DISTORTING EXCESSIVELY.
   ELEMENT 417 IS DISTORTING EXCESSIVELY.
   ELEMENT 417 IS DISTORTING EXCESSIVELY.
   ELEMENT 418 IS DISTORTING EXCESSIVELY.
   ELEMENT 418 IS DISTORTING EXCESSIVELY.
   ELEMENT 418 IS DISTORTING EXCESSIVELY.
   ELEMENT 418 IS DISTORTING EXCESSIVELY.


  INCREMENT     2 STARTS. ATTEMPT NUMBER  1, TIME INCREMENT  3.125E-03

  NUMBER OF EQUATIONS =      1407     NUMBER OF RHS =    1
  NUMBER OF FLOATING PT. OPERATIONS =  9.92E+06

  USING THE DIRECT SOLVER WITH  24 PROCESSORS

     CHECK POINT   START OF SOLVER    

     CHECK POINT  END OF SOLVER       

       ELAPSED USER TIME (SEC)      =  0.11000    
       ELAPSED SYSTEM TIME (SEC)    =  4.00000E-02
       ELAPSED TOTAL CPU TIME (SEC) =  0.15000    
       ELAPSED WALLCLOCK TIME (SEC) =          0

               CONVERGENCE CHECKS FOR EQUILIBRIUM ITERATION     1


 AVERAGE FORCE                       235.       TIME AVG. FORCE        193.    
 ALL FORCE     RESIDUALS ARE ZERO
 LARGEST INCREMENT OF DISP.         0.133       AT NODE        746   DOF  3
 LARGEST CORRECTION TO DISP.        9.515E-04   AT NODE        746   DOF  1
          THE FORCE     EQUILIBRIUM RESPONSE WAS LINEAR IN THIS INCREMENT

 AVERAGE MOMENT                      0.00       TIME AVG. MOMENT       187.    
                                                (FROM FORCE     FIELD)
 ALL MOMENT    RESIDUALS ARE ZERO
 LARGEST INCREMENT OF ROTATION      7.284E-03   AT NODE        307   DOF  5
 LARGEST CORRECTION TO ROTATION     1.084E-19   AT NODE        307   DOF  6
          THERE IS ZERO MOMENT    EVERYWHERE
          TIME INCREMENT MAY NOW INCREASE TO    4.688E-03

 ITERATION SUMMARY FOR THE INCREMENT:   1 TOTAL ITERATIONS, OF WHICH
   0 ARE SEVERE DISCONTINUITY ITERATIONS AND  1 ARE EQUILIBRIUM ITERATIONS.

 TIME INCREMENT COMPLETED  3.125E-03,  FRACTION OF STEP COMPLETED  6.250E-03
 STEP TIME COMPLETED       6.250E-03,  TOTAL TIME COMPLETED         8.01    


  INCREMENT     3 STARTS. ATTEMPT NUMBER  1, TIME INCREMENT  4.688E-03

 ***WARNING: EXCESSIVE DISTORTION AT A TOTAL OF 92 INTEGRATION POINTS IN SOLID 
             (CONTINUUM) ELEMENTS


  INCREMENT     3 STARTS. ATTEMPT NUMBER  2, TIME INCREMENT  1.172E-03
 

 ***NOTE: ELEMENTS ARE DISTORTING EXCESSIVELY. CONVERGENCE IS JUDGED UNLIKELY.
   ELEMENT 530 IS DISTORTING EXCESSIVELY.
   ELEMENT 530 IS DISTORTING EXCESSIVELY.
   ELEMENT 530 IS DISTORTING EXCESSIVELY.
   ELEMENT 609 IS DISTORTING EXCESSIVELY.
   ELEMENT 609 IS DISTORTING EXCESSIVELY.
   ELEMENT 609 IS DISTORTING EXCESSIVELY.
   ELEMENT 609 IS DISTORTING EXCESSIVELY.

 ***WARNING: EXCESSIVE DISTORTION AT A TOTAL OF 7 INTEGRATION POINTS IN SOLID 
             (CONTINUUM) ELEMENTS
 

 ***NOTE: ELEMENTS ARE DISTORTING EXCESSIVELY. CONVERGENCE IS JUDGED UNLIKELY.


  INCREMENT     3 STARTS. ATTEMPT NUMBER  3, TIME INCREMENT  2.930E-04

  NUMBER OF EQUATIONS =      1407     NUMBER OF RHS =    1
  NUMBER OF FLOATING PT. OPERATIONS =  9.92E+06

  USING THE DIRECT SOLVER WITH  24 PROCESSORS

     CHECK POINT   START OF SOLVER    

     CHECK POINT  END OF SOLVER       

       ELAPSED USER TIME (SEC)      =  0.14000    
       ELAPSED SYSTEM TIME (SEC)    =  1.00000E-02
       ELAPSED TOTAL CPU TIME (SEC) =  0.15000    
       ELAPSED WALLCLOCK TIME (SEC) =          0

               CONVERGENCE CHECKS FOR EQUILIBRIUM ITERATION     1


 AVERAGE FORCE                       259.       TIME AVG. FORCE        215.    
 ALL FORCE     RESIDUALS ARE ZERO
 LARGEST INCREMENT OF DISP.         1.242E-02   AT NODE        746   DOF  3
 LARGEST CORRECTION TO DISP.        1.242E-02   AT NODE        746   DOF  3
          THE FORCE     EQUILIBRIUM RESPONSE WAS LINEAR IN THIS INCREMENT

 AVERAGE MOMENT                      0.00       TIME AVG. MOMENT       239.    
                                                (FROM FORCE     FIELD)
 ALL MOMENT    RESIDUALS ARE ZERO
 LARGEST INCREMENT OF ROTATION      6.829E-04   AT NODE        307   DOF  5
 LARGEST CORRECTION TO ROTATION     6.829E-04   AT NODE        307   DOF  5
          THERE IS ZERO MOMENT    EVERYWHERE
          TIME INCREMENT MAY NOW INCREASE TO    4.395E-04

 ITERATION SUMMARY FOR THE INCREMENT:   1 TOTAL ITERATIONS, OF WHICH
   0 ARE SEVERE DISCONTINUITY ITERATIONS AND  1 ARE EQUILIBRIUM ITERATIONS.

 TIME INCREMENT COMPLETED  2.930E-04,  FRACTION OF STEP COMPLETED  6.543E-03
 STEP TIME COMPLETED       6.543E-03,  TOTAL TIME COMPLETED         8.01    
   ELEMENT 689 IS DISTORTING EXCESSIVELY.
   ELEMENT 689 IS DISTORTING EXCESSIVELY.
   ELEMENT 689 IS DISTORTING EXCESSIVELY.
   ELEMENT 689 IS DISTORTING EXCESSIVELY.
   ELEMENT 689 IS DISTORTING EXCESSIVELY.
   ELEMENT 689 IS DISTORTING EXCESSIVELY.
   ELEMENT 689 IS DISTORTING EXCESSIVELY.
   ELEMENT 689 IS DISTORTING EXCESSIVELY.
   ELEMENT 768 IS DISTORTING EXCESSIVELY.
   ELEMENT 768 IS DISTORTING EXCESSIVELY.
   ELEMENT 768 IS DISTORTING EXCESSIVELY.
   ELEMENT 768 IS DISTORTING EXCESSIVELY.
   ELEMENT 768 IS DISTORTING EXCESSIVELY.
   ELEMENT 768 IS DISTORTING EXCESSIVELY.
   ELEMENT 768 IS DISTORTING EXCESSIVELY.
   ELEMENT 768 IS DISTORTING EXCESSIVELY.
   ELEMENT 769 IS DISTORTING EXCESSIVELY.
   ELEMENT 769 IS DISTORTING EXCESSIVELY.
   ELEMENT 729 IS DISTORTING EXCESSIVELY.
   ELEMENT 729 IS DISTORTING EXCESSIVELY.
   ELEMENT 729 IS DISTORTING EXCESSIVELY.
   ELEMENT 729 IS DISTORTING EXCESSIVELY.
   ELEMENT 491 IS DISTORTING EXCESSIVELY.
   ELEMENT 491 IS DISTORTING EXCESSIVELY.
   ELEMENT 491 IS DISTORTING EXCESSIVELY.
   ELEMENT 491 IS DISTORTING EXCESSIVELY.
   ELEMENT 491 IS DISTORTING EXCESSIVELY.
   ELEMENT 491 IS DISTORTING EXCESSIVELY.
   ELEMENT 491 IS DISTORTING EXCESSIVELY.
   ELEMENT 491 IS DISTORTING EXCESSIVELY.
   ELEMENT 492 IS DISTORTING EXCESSIVELY.
   ELEMENT 728 IS DISTORTING EXCESSIVELY.
   ELEMENT 728 IS DISTORTING EXCESSIVELY.
   ELEMENT 728 IS DISTORTING EXCESSIVELY.
   ELEMENT 728 IS DISTORTING EXCESSIVELY.
   ELEMENT 728 IS DISTORTING EXCESSIVELY.
   ELEMENT 728 IS DISTORTING EXCESSIVELY.
   ELEMENT 728 IS DISTORTING EXCESSIVELY.
   ELEMENT 728 IS DISTORTING EXCESSIVELY.
   ELEMENT 530 IS DISTORTING EXCESSIVELY.
   ELEMENT 530 IS DISTORTING EXCESSIVELY.
   ELEMENT 530 IS DISTORTING EXCESSIVELY.
   ELEMENT 530 IS DISTORTING EXCESSIVELY.
   ELEMENT 530 IS DISTORTING EXCESSIVELY.
   ELEMENT 530 IS DISTORTING EXCESSIVELY.
   ELEMENT 530 IS DISTORTING EXCESSIVELY.
   ELEMENT 530 IS DISTORTING EXCESSIVELY.
   ELEMENT 531 IS DISTORTING EXCESSIVELY.
   ELEMENT 531 IS DISTORTING EXCESSIVELY.
   ELEMENT 531 IS DISTORTING EXCESSIVELY.
   ELEMENT 531 IS DISTORTING EXCESSIVELY.
   ELEMENT 531 IS DISTORTING EXCESSIVELY.
   ELEMENT 570 IS DISTORTING EXCESSIVELY.
   ELEMENT 570 IS DISTORTING EXCESSIVELY.
   ELEMENT 570 IS DISTORTING EXCESSIVELY.
   ELEMENT 570 IS DISTORTING EXCESSIVELY.
   ELEMENT 570 IS DISTORTING EXCESSIVELY.
   ELEMENT 570 IS DISTORTING EXCESSIVELY.
   ELEMENT 570 IS DISTORTING EXCESSIVELY.
   ELEMENT 570 IS DISTORTING EXCESSIVELY.
   ELEMENT 571 IS DISTORTING EXCESSIVELY.
   ELEMENT 571 IS DISTORTING EXCESSIVELY.
   ELEMENT 452 IS DISTORTING EXCESSIVELY.
   ELEMENT 452 IS DISTORTING EXCESSIVELY.
   ELEMENT 452 IS DISTORTING EXCESSIVELY.
   ELEMENT 452 IS DISTORTING EXCESSIVELY.
   ELEMENT 649 IS DISTORTING EXCESSIVELY.
   ELEMENT 649 IS DISTORTING EXCESSIVELY.
   ELEMENT 649 IS DISTORTING EXCESSIVELY.
   ELEMENT 649 IS DISTORTING EXCESSIVELY.
   ELEMENT 649 IS DISTORTING EXCESSIVELY.
   ELEMENT 649 IS DISTORTING EXCESSIVELY.
   ELEMENT 649 IS DISTORTING EXCESSIVELY.
   ELEMENT 649 IS DISTORTING EXCESSIVELY.
   ELEMENT 650 IS DISTORTING EXCESSIVELY.
   ELEMENT 650 IS DISTORTING EXCESSIVELY.
   ELEMENT 650 IS DISTORTING EXCESSIVELY.
   ELEMENT 650 IS DISTORTING EXCESSIVELY.
   ELEMENT 609 IS DISTORTING EXCESSIVELY.
   ELEMENT 609 IS DISTORTING EXCESSIVELY.
   ELEMENT 609 IS DISTORTING EXCESSIVELY.
   ELEMENT 609 IS DISTORTING EXCESSIVELY.
   ELEMENT 609 IS DISTORTING EXCESSIVELY.
   ELEMENT 609 IS DISTORTING EXCESSIVELY.
   ELEMENT 609 IS DISTORTING EXCESSIVELY.
   ELEMENT 609 IS DISTORTING EXCESSIVELY.
   ELEMENT 610 IS DISTORTING EXCESSIVELY.
   ELEMENT 610 IS DISTORTING EXCESSIVELY.
   ELEMENT 610 IS DISTORTING EXCESSIVELY.
   ELEMENT 610 IS DISTORTING EXCESSIVELY.
   ELEMENT 610 IS DISTORTING EXCESSIVELY.
   ELEMENT 610 IS DISTORTING EXCESSIVELY.


  INCREMENT     4 STARTS. ATTEMPT NUMBER  1, TIME INCREMENT  4.395E-04

 ***WARNING: EXCESSIVE DISTORTION AT A TOTAL OF 4 INTEGRATION POINTS IN SOLID 
             (CONTINUUM) ELEMENTS


  INCREMENT     4 STARTS. ATTEMPT NUMBER  2, TIME INCREMENT  1.099E-04
 

 ***NOTE: ELEMENTS ARE DISTORTING EXCESSIVELY. CONVERGENCE IS JUDGED UNLIKELY.

  NUMBER OF EQUATIONS =      1407     NUMBER OF RHS =    1
  NUMBER OF FLOATING PT. OPERATIONS =  9.92E+06

  USING THE DIRECT SOLVER WITH  24 PROCESSORS

     CHECK POINT   START OF SOLVER    

     CHECK POINT  END OF SOLVER       

       ELAPSED USER TIME (SEC)      =  0.13000    
       ELAPSED SYSTEM TIME (SEC)    =  1.00000E-02
       ELAPSED TOTAL CPU TIME (SEC) =  0.14000    
       ELAPSED WALLCLOCK TIME (SEC) =          0

               CONVERGENCE CHECKS FOR EQUILIBRIUM ITERATION     1


 AVERAGE FORCE                       273.       TIME AVG. FORCE        229.    
 ALL FORCE     RESIDUALS ARE ZERO
 LARGEST INCREMENT OF DISP.         4.659E-03   AT NODE        746   DOF  3
 LARGEST CORRECTION TO DISP.        2.155E-06   AT NODE        746   DOF  1
          THE FORCE     EQUILIBRIUM RESPONSE WAS LINEAR IN THIS INCREMENT

 AVERAGE MOMENT                      0.00       TIME AVG. MOMENT       266.    
                                                (FROM FORCE     FIELD)
 ALL MOMENT    RESIDUALS ARE ZERO
 LARGEST INCREMENT OF ROTATION      2.561E-04   AT NODE        307   DOF  5
 LARGEST CORRECTION TO ROTATION    -1.735E-18   AT NODE        307   DOF  4
          THERE IS ZERO MOMENT    EVERYWHERE
          TIME INCREMENT MAY NOW INCREASE TO    1.648E-04

 ITERATION SUMMARY FOR THE INCREMENT:   1 TOTAL ITERATIONS, OF WHICH
   0 ARE SEVERE DISCONTINUITY ITERATIONS AND  1 ARE EQUILIBRIUM ITERATIONS.

 TIME INCREMENT COMPLETED  1.099E-04,  FRACTION OF STEP COMPLETED  6.653E-03
 STEP TIME COMPLETED       6.653E-03,  TOTAL TIME COMPLETED         8.01    
   ELEMENT 609 IS DISTORTING EXCESSIVELY.
   ELEMENT 609 IS DISTORTING EXCESSIVELY.
   ELEMENT 530 IS DISTORTING EXCESSIVELY.
   ELEMENT 530 IS DISTORTING EXCESSIVELY.


  INCREMENT     5 STARTS. ATTEMPT NUMBER  1, TIME INCREMENT  1.648E-04

 ***WARNING: EXCESSIVE DISTORTION AT A TOTAL OF 4 INTEGRATION POINTS IN SOLID 
             (CONTINUUM) ELEMENTS


  INCREMENT     5 STARTS. ATTEMPT NUMBER  2, TIME INCREMENT  5.000E-05

 ***WARNING: EXCESSIVE DISTORTION AT A TOTAL OF 2 INTEGRATION POINTS IN SOLID 
             (CONTINUUM) ELEMENTS
 

 ***NOTE: ELEMENTS ARE DISTORTING EXCESSIVELY. CONVERGENCE IS JUDGED UNLIKELY.
 

 ***NOTE: ELEMENTS ARE DISTORTING EXCESSIVELY. CONVERGENCE IS JUDGED UNLIKELY.
   ELEMENT 530 IS DISTORTING EXCESSIVELY.
   ELEMENT 530 IS DISTORTING EXCESSIVELY.
   ELEMENT 609 IS DISTORTING EXCESSIVELY.
   ELEMENT 609 IS DISTORTING EXCESSIVELY.
   ELEMENT 609 IS DISTORTING EXCESSIVELY.
   ELEMENT 609 IS DISTORTING EXCESSIVELY.
 

 ***ERROR: TIME INCREMENT REQUIRED IS LESS THAN THE MINIMUM SPECIFIED



     ANALYSIS SUMMARY:
     TOTAL OF        165  INCREMENTS
                       6  CUTBACKS IN AUTOMATIC INCREMENTATION
                     166  ITERATIONS INCLUDING CONTACT ITERATIONS IF PRESENT
                     166  PASSES THROUGH THE EQUATION SOLVER OF WHICH 
                     166  INVOLVE MATRIX DECOMPOSITION, INCLUDING
                       0  DECOMPOSITION(S) OF THE MASS MATRIX
                       1  REORDERING OF EQUATIONS TO MINIMIZE WAVEFRONT
                       0  ADDITIONAL RESIDUAL EVALUATIONS FOR LINE SEARCHES
                       0  ADDITIONAL OPERATOR EVALUATIONS FOR LINE SEARCHES
                     457  WARNING MESSAGES DURING USER INPUT PROCESSING
                       7  WARNING MESSAGES DURING ANALYSIS
                       0  ANALYSIS WARNINGS ARE NUMERICAL PROBLEM MESSAGES
                       0  ANALYSIS WARNINGS ARE NEGATIVE EIGENVALUE MESSAGES
                       1  ERROR MESSAGES



     JOB TIME SUMMARY
       USER TIME (SEC)      =   165.27    
       SYSTEM TIME (SEC)    =   32.580    
       TOTAL CPU TIME (SEC) =   197.85    
       WALLCLOCK TIME (SEC) =         18

---------- RUNTIME EXCEPTION HAS OCCURRED ----------
*** ERROR: ABAQUS/standard rank 0 terminated by signal 6 (Aborted)
