1

   Abaqus 2021                                  Date 19-Feb-2023   Time 14:51:57
   For use by UNIVERSITAET BERN under license from Dassault Systemes or its subsidiary.

                                                                                 
                                                                                 
 STEP    1     INCREMENT     1     STEP TIME    0.00    


                        S T E P       1     S T A T I C   A N A L Y S I S


                                                                                          

     AUTOMATIC TIME CONTROL WITH -
          A SUGGESTED INITIAL TIME INCREMENT OF                5.000E-02
          AND A TOTAL TIME PERIOD OF                            1.00    
          THE MINIMUM TIME INCREMENT ALLOWED IS                5.000E-05
          THE MAXIMUM TIME INCREMENT ALLOWED IS                5.000E-02

     LINEAR EQUATION SOLVER TYPE         DIRECT SPARSE

 CONVERGENCE TOLERANCE PARAMETERS FOR FORCE    
     CRITERION FOR RESIDUAL FORCE     FOR A NONLINEAR PROBLEM          5.000E-03
     CRITERION FOR DISP.    CORRECTION IN A NONLINEAR PROBLEM          1.000E-02
     INITIAL VALUE OF TIME AVERAGE FORCE                               1.000E-02
     AVERAGE FORCE     IS TIME AVERAGE FORCE    
     ALTERNATE CRIT. FOR RESIDUAL FORCE     FOR A NONLINEAR PROBLEM    2.000E-02
     CRITERION FOR ZERO FORCE     RELATIVE TO TIME AVRG. FORCE         1.000E-05
     CRITERION FOR RESIDUAL FORCE     WHEN THERE IS ZERO FLUX          1.000E-05
     CRITERION FOR DISP.    CORRECTION WHEN THERE IS ZERO FLUX         1.000E-03
     CRITERION FOR RESIDUAL FORCE     FOR A LINEAR INCREMENT           1.000E-08
     FIELD CONVERSION RATIO                                             1.00    
     CRITERION FOR ZERO FORCE     REL. TO TIME AVRG. MAX. FORCE        1.000E-05
     CRITERION FOR ZERO DISP.    RELATIVE TO CHARACTERISTIC LENGTH     1.000E-08

 CONVERGENCE TOLERANCE PARAMETERS FOR MOMENT   
     CRITERION FOR RESIDUAL MOMENT    FOR A NONLINEAR PROBLEM          5.000E-03
     CRITERION FOR ROTATION CORRECTION IN A NONLINEAR PROBLEM          1.000E-02
     INITIAL VALUE OF TIME AVERAGE MOMENT                              1.000E-02
     AVERAGE MOMENT    IS TIME AVERAGE MOMENT   
     ALTERNATE CRIT. FOR RESIDUAL MOMENT    FOR A NONLINEAR PROBLEM    2.000E-02
     CRITERION FOR ZERO MOMENT    RELATIVE TO TIME AVRG. MOMENT        1.000E-05
     CRITERION FOR RESIDUAL MOMENT    WHEN THERE IS ZERO FLUX          1.000E-05
     CRITERION FOR ROTATION CORRECTION WHEN THERE IS ZERO FLUX         1.000E-03
     CRITERION FOR RESIDUAL MOMENT    FOR A LINEAR INCREMENT           1.000E-08
     FIELD CONVERSION RATIO                                             1.00    
     CRITERION FOR ZERO MOMENT    REL. TO TIME AVRG. MAX. MOMENT       1.000E-05

     VOLUMETRIC STRAIN COMPATIBILITY TOLERANCE FOR HYBRID SOLIDS       1.000E-05
     AXIAL STRAIN COMPATIBILITY TOLERANCE FOR HYBRID BEAMS             1.000E-05
     TRANS. SHEAR STRAIN COMPATIBILITY TOLERANCE FOR HYBRID BEAMS      1.000E-05
     SOFT CONTACT CONSTRAINT COMPATIBILITY TOLERANCE FOR P>P0          5.000E-03
     SOFT CONTACT CONSTRAINT COMPATIBILITY TOLERANCE FOR P=0.0         0.100    
     CONTACT FORCE ERROR TOLERANCE FOR CONVERT SDI=YES                 1.00    
     DISPLACEMENT COMPATIBILITY TOLERANCE FOR DCOUP ELEMENTS           1.000E-05
     ROTATION COMPATIBILITY TOLERANCE FOR DCOUP ELEMENTS               1.000E-05

 EQUILIBRIUM WILL BE CHECKED FOR SEVERE DISCONTINUITY ITERATIONS

 TIME INCREMENTATION CONTROL PARAMETERS:
     FIRST EQUILIBRIUM ITERATION FOR CONSECUTIVE DIVERGENCE CHECK              4
     EQUILIBRIUM ITERATION AT WHICH LOG. CONVERGENCE RATE CHECK BEGINS         8
     EQUILIBRIUM ITERATION AFTER WHICH ALTERNATE RESIDUAL IS USED              9
     MAXIMUM EQUILIBRIUM ITERATIONS ALLOWED                                   16
     EQUILIBRIUM ITERATION COUNT FOR CUT-BACK IN NEXT INCREMENT               10
     MAXIMUM EQUILIB. ITERS IN TWO INCREMENTS FOR TIME INCREMENT INCREASE      4
     MAXIMUM ITERATIONS FOR SEVERE DISCONTINUITIES                            50
     MAXIMUM ATTEMPTS ALLOWED IN AN INCREMENT                                  5
     MAXIMUM DISCON. ITERS IN TWO INCREMENTS FOR TIME INCREMENT INCREASE      50
     MAXIMUM CONTACT AUGMENTATIONS FOR *SURFACE BEHAVIOR,AUGMENTED LAGRANGE   50
     CUT-BACK FACTOR AFTER DIVERGENCE                                 0.2500    
     CUT-BACK FACTOR FOR TOO SLOW CONVERGENCE                         0.5000    
     CUT-BACK FACTOR AFTER TOO MANY EQUILIBRIUM ITERATIONS            0.7500    
     CUT-BACK FACTOR AFTER TOO MANY SEVERE DISCONTINUITY ITERATIONS   0.2500    
     CUT-BACK FACTOR AFTER PROBLEMS IN ELEMENT ASSEMBLY               0.2500    
     INCREASE FACTOR AFTER TWO INCREMENTS THAT CONVERGE QUICKLY        1.500    
     MAX. TIME INCREMENT INCREASE FACTOR ALLOWED                       1.500    
     MAX. TIME INCREMENT INCREASE FACTOR ALLOWED (DYNAMICS)            1.250    
     MAX. TIME INCREMENT INCREASE FACTOR ALLOWED (DIFFUSION)           2.000    
     MINIMUM TIME INCREMENT RATIO FOR EXTRAPOLATION TO OCCUR          0.1000    
     MAX. RATIO OF TIME INCREMENT TO STABILITY LIMIT                   1.000    
     FRACTION OF STABILITY LIMIT FOR NEW TIME INCREMENT               0.9500    
     TIME INCREMENT INCREASE FACTOR BEFORE A TIME POINT                1.000    
     GLOBAL STABILIZATION CONTROL IS NOT USED

          PRINT OF INCREMENT NUMBER, TIME, ETC., EVERY    1  INCREMENTS

     THE MAXIMUM NUMBER OF INCREMENTS IN THIS STEP IS                    1000

          LARGE DISPLACEMENT THEORY WILL BE USED

          UNSYMMETRIC MATRIX STORAGE AND SOLUTION WILL BE USED

     LINEAR EXTRAPOLATION WILL BE USED

     CHARACTERISTIC ELEMENT LENGTH      1.24    

     DETAILS REGARDING ACTUAL SOLUTION WAVEFRONT REQUESTED

     DETAILED OUTPUT OF DIAGNOSTICS TO DATABASE REQUESTED

     PRINT OF INCREMENT NUMBER, TIME, ETC., TO THE MESSAGE FILE EVERY     1  INCREMENTS

     ELEMENT OPERATIONS WILL BE CARRIED OUT IN PARALLEL USING  42 PROCESSORS

     PARALLEL CONTACT TRACKING ENABLED


     COLLECTING MODEL CONSTRAINT INFORMATION FOR OVERCONSTRAINT CHECKS

     COLLECTING STEP CONSTRAINT INFORMATION FOR OVERCONSTRAINT CHECKS


  INCREMENT     1 STARTS. ATTEMPT NUMBER  1, TIME INCREMENT  5.000E-02
 
     INITIAL ELEMENT LOAD BALANCE
            PROCESS    1   THREAD     NUMBER OF ELEMENTS
                              1            9
                              2            9
                              3            9
                              4            18
                              5            9
                              6            9
                              7            9
                              8            9
                              9            9
                             10            9
                             11            9
                             12            9
                             13            9
                             14            9
                             15            9
                             16            9
                             17            9
                             18            9
                             19            9
                             20            9
                             21            9
                             22            9
                             23            9
                             24            18
                             25            18
                             26            9
                             27            9
                             28            9
                             29            9
                             30            9
                             31            14
                             32            9
                             33            9
                             34            18
                             35            9
                             36            9
                             37            9
                             38            9
                             39            9
                             40            9
                             41            9
                             42            9

  NUMBER OF EQUATIONS =      1407     NUMBER OF RHS =    1
  NUMBER OF FLOATING PT. OPERATIONS =  9.92E+06

  USING THE DIRECT SOLVER WITH  42 PROCESSORS

     CHECK POINT   START OF SOLVER    

     CHECK POINT  END OF SOLVER       

       ELAPSED USER TIME (SEC)      =  0.99000    
       ELAPSED SYSTEM TIME (SEC)    =  0.14000    
       ELAPSED TOTAL CPU TIME (SEC) =   1.1300    
       ELAPSED WALLCLOCK TIME (SEC) =          0

               CONVERGENCE CHECKS FOR EQUILIBRIUM ITERATION     1


 AVERAGE FORCE                       10.6       TIME AVG. FORCE        10.6    
 LARGEST RESIDUAL FORCE              209.       AT NODE   10000000   DOF  1
 LARGEST INCREMENT OF DISP.         4.402E-02   AT NODE       1059   DOF  3
 LARGEST CORRECTION TO DISP.        4.402E-02   AT NODE       1059   DOF  3
          FORCE     EQUILIBRIUM NOT ACHIEVED WITHIN TOLERANCE.

 AVERAGE MOMENT                      0.00       TIME AVG. MOMENT       13.1    
                                                (FROM FORCE     FIELD)
 LARGEST RESIDUAL MOMENT            3.403E+04   AT NODE   10000000   DOF  4
 LARGEST INCREMENT OF ROTATION      1.022E-03   AT NODE        307   DOF  4
 LARGEST CORRECTION TO ROTATION     1.022E-03   AT NODE        307   DOF  4
          THE MOMENT    IS ZERO EVERYWHERE BUT THE MOMENT    RESIDUAL OR
          THE ROTATION CORRECTION IS NON-ZERO

  NUMBER OF EQUATIONS =      1407     NUMBER OF RHS =    1
  NUMBER OF FLOATING PT. OPERATIONS =  9.92E+06

  USING THE DIRECT SOLVER WITH  42 PROCESSORS

     CHECK POINT   START OF SOLVER    

     CHECK POINT  END OF SOLVER       

       ELAPSED USER TIME (SEC)      =  0.32000    
       ELAPSED SYSTEM TIME (SEC)    =  0.15000    
       ELAPSED TOTAL CPU TIME (SEC) =  0.47000    
       ELAPSED WALLCLOCK TIME (SEC) =          0

               CONVERGENCE CHECKS FOR EQUILIBRIUM ITERATION     2


 AVERAGE FORCE                       9.83       TIME AVG. FORCE        9.83    
 LARGEST RESIDUAL FORCE              3.59       AT NODE   10000000   DOF  2
 LARGEST INCREMENT OF DISP.         5.440E-02   AT NODE       1035   DOF  3
 LARGEST CORRECTION TO DISP.       -1.301E-02   AT NODE        315   DOF  3
          FORCE     EQUILIBRIUM NOT ACHIEVED WITHIN TOLERANCE.

 AVERAGE MOMENT                      0.00       TIME AVG. MOMENT       12.2    
                                                (FROM FORCE     FIELD)
 LARGEST RESIDUAL MOMENT             245.       AT NODE   10000000   DOF  5
 LARGEST INCREMENT OF ROTATION      1.983E-03   AT NODE        307   DOF  4
 LARGEST CORRECTION TO ROTATION     9.608E-04   AT NODE        307   DOF  4
          THE MOMENT    IS ZERO EVERYWHERE BUT THE MOMENT    RESIDUAL OR
          THE ROTATION CORRECTION IS NON-ZERO

  NUMBER OF EQUATIONS =      1407     NUMBER OF RHS =    1
  NUMBER OF FLOATING PT. OPERATIONS =  9.92E+06

  USING THE DIRECT SOLVER WITH  42 PROCESSORS

     CHECK POINT   START OF SOLVER    

     CHECK POINT  END OF SOLVER       

       ELAPSED USER TIME (SEC)      =  0.35000    
       ELAPSED SYSTEM TIME (SEC)    =  9.00000E-02
       ELAPSED TOTAL CPU TIME (SEC) =  0.44000    
       ELAPSED WALLCLOCK TIME (SEC) =          0

               CONVERGENCE CHECKS FOR EQUILIBRIUM ITERATION     3


 AVERAGE FORCE                       9.82       TIME AVG. FORCE        9.82    
 LARGEST RESIDUAL FORCE            -4.742E-02   AT NODE   10000000   DOF  2
 LARGEST INCREMENT OF DISP.         5.445E-02   AT NODE       1035   DOF  3
 LARGEST CORRECTION TO DISP.        9.127E-05   AT NODE        569   DOF  2
          THE FORCE     EQUILIBRIUM EQUATIONS HAVE CONVERGED

 AVERAGE MOMENT                      0.00       TIME AVG. MOMENT       12.2    
                                                (FROM FORCE     FIELD)
 LARGEST RESIDUAL MOMENT             7.52       AT NODE   10000000   DOF  5
 LARGEST INCREMENT OF ROTATION      1.984E-03   AT NODE        307   DOF  4
 LARGEST CORRECTION TO ROTATION     4.047E-06   AT NODE        307   DOF  6
          THE MOMENT    IS ZERO EVERYWHERE BUT THE MOMENT    RESIDUAL OR
          THE ROTATION CORRECTION IS NON-ZERO

  NUMBER OF EQUATIONS =      1407     NUMBER OF RHS =    1
  NUMBER OF FLOATING PT. OPERATIONS =  9.92E+06

  USING THE DIRECT SOLVER WITH  42 PROCESSORS

     CHECK POINT   START OF SOLVER    

     CHECK POINT  END OF SOLVER       

       ELAPSED USER TIME (SEC)      =  0.51000    
       ELAPSED SYSTEM TIME (SEC)    =  0.13000    
       ELAPSED TOTAL CPU TIME (SEC) =  0.64000    
       ELAPSED WALLCLOCK TIME (SEC) =          0

               CONVERGENCE CHECKS FOR EQUILIBRIUM ITERATION     4


 AVERAGE FORCE                       9.82       TIME AVG. FORCE        9.82    
 LARGEST RESIDUAL FORCE             4.187E-04   AT NODE   10000000   DOF  2
 LARGEST INCREMENT OF DISP.         5.445E-02   AT NODE       1035   DOF  3
 LARGEST CORRECTION TO DISP.        1.291E-06   AT NODE        993   DOF  3
          THE FORCE     EQUILIBRIUM EQUATIONS HAVE CONVERGED

 AVERAGE MOMENT                      0.00       TIME AVG. MOMENT       12.2    
                                                (FROM FORCE     FIELD)
 LARGEST RESIDUAL MOMENT            0.238       AT NODE   10000000   DOF  5
 LARGEST INCREMENT OF ROTATION      1.984E-03   AT NODE        307   DOF  4
 LARGEST CORRECTION TO ROTATION     6.398E-08   AT NODE        307   DOF  5
          ALL ROTATION CORRECTIONS ARE ZERO
          THE MOMENT    IS ZERO EVERYWHERE BUT THE MOMENT    RESIDUAL OR
          THE ROTATION CORRECTION IS NON-ZERO

  NUMBER OF EQUATIONS =      1407     NUMBER OF RHS =    1
  NUMBER OF FLOATING PT. OPERATIONS =  9.92E+06

  USING THE DIRECT SOLVER WITH  42 PROCESSORS

     CHECK POINT   START OF SOLVER    

     CHECK POINT  END OF SOLVER       

       ELAPSED USER TIME (SEC)      =  0.29000    
       ELAPSED SYSTEM TIME (SEC)    =  0.13000    
       ELAPSED TOTAL CPU TIME (SEC) =  0.42000    
       ELAPSED WALLCLOCK TIME (SEC) =          0

               CONVERGENCE CHECKS FOR EQUILIBRIUM ITERATION     5


 AVERAGE FORCE                       9.82       TIME AVG. FORCE        9.82    
 LARGEST RESIDUAL FORCE             8.822E-06   AT NODE   10000000   DOF  1
 LARGEST INCREMENT OF DISP.         5.445E-02   AT NODE       1035   DOF  3
 LARGEST CORRECTION TO DISP.        3.945E-08   AT NODE        993   DOF  3
          THE FORCE     EQUILIBRIUM EQUATIONS HAVE CONVERGED

 AVERAGE MOMENT                      0.00       TIME AVG. MOMENT       12.2    
                                                (FROM FORCE     FIELD)
 LARGEST RESIDUAL MOMENT            7.423E-03   AT NODE   10000000   DOF  5
 LARGEST INCREMENT OF ROTATION      1.984E-03   AT NODE        307   DOF  4
 LARGEST CORRECTION TO ROTATION     2.016E-09   AT NODE        307   DOF  5
          ALL ROTATION CORRECTIONS ARE ZERO

 ITERATION SUMMARY FOR THE INCREMENT:   5 TOTAL ITERATIONS, OF WHICH
   0 ARE SEVERE DISCONTINUITY ITERATIONS AND  5 ARE EQUILIBRIUM ITERATIONS.

 TIME INCREMENT COMPLETED  5.000E-02,  FRACTION OF STEP COMPLETED  5.000E-02
 STEP TIME COMPLETED       5.000E-02,  TOTAL TIME COMPLETED        5.000E-02


  INCREMENT     2 STARTS. ATTEMPT NUMBER  1, TIME INCREMENT  5.000E-02

  NUMBER OF EQUATIONS =      1407     NUMBER OF RHS =    1
  NUMBER OF FLOATING PT. OPERATIONS =  9.92E+06

  USING THE DIRECT SOLVER WITH  42 PROCESSORS

     CHECK POINT   START OF SOLVER    

     CHECK POINT  END OF SOLVER       

       ELAPSED USER TIME (SEC)      =  0.38000    
       ELAPSED SYSTEM TIME (SEC)    =  8.00000E-02
       ELAPSED TOTAL CPU TIME (SEC) =  0.46000    
       ELAPSED WALLCLOCK TIME (SEC) =          0

               CONVERGENCE CHECKS FOR EQUILIBRIUM ITERATION     1


 AVERAGE FORCE                       16.8       TIME AVG. FORCE        13.3    
 LARGEST RESIDUAL FORCE              6.50       AT NODE   10000000   DOF  1
 LARGEST INCREMENT OF DISP.         5.539E-02   AT NODE       1035   DOF  3
 LARGEST CORRECTION TO DISP.        3.319E-03   AT NODE       1035   DOF  1
          FORCE     EQUILIBRIUM NOT ACHIEVED WITHIN TOLERANCE.

 AVERAGE MOMENT                      0.00       TIME AVG. MOMENT       12.2    
                                                (FROM FORCE     FIELD)
 LARGEST RESIDUAL MOMENT             290.       AT NODE   10000000   DOF  5
 LARGEST INCREMENT OF ROTATION      1.971E-03   AT NODE        307   DOF  4
 LARGEST CORRECTION TO ROTATION    -1.343E-04   AT NODE        307   DOF  6
          THE MOMENT    IS ZERO EVERYWHERE BUT THE MOMENT    RESIDUAL OR
          THE ROTATION CORRECTION IS NON-ZERO

  NUMBER OF EQUATIONS =      1407     NUMBER OF RHS =    1
  NUMBER OF FLOATING PT. OPERATIONS =  9.92E+06

  USING THE DIRECT SOLVER WITH  42 PROCESSORS

     CHECK POINT   START OF SOLVER    

     CHECK POINT  END OF SOLVER       

       ELAPSED USER TIME (SEC)      =  0.51000    
       ELAPSED SYSTEM TIME (SEC)    =  8.00000E-02
       ELAPSED TOTAL CPU TIME (SEC) =  0.59000    
       ELAPSED WALLCLOCK TIME (SEC) =          0

               CONVERGENCE CHECKS FOR EQUILIBRIUM ITERATION     2


 AVERAGE FORCE                       16.8       TIME AVG. FORCE        13.3    
 LARGEST RESIDUAL FORCE            -0.124       AT NODE   10000000   DOF  1
 LARGEST INCREMENT OF DISP.         5.543E-02   AT NODE       1035   DOF  3
 LARGEST CORRECTION TO DISP.        1.127E-04   AT NODE       1035   DOF  1
          FORCE     EQUILIBRIUM NOT ACHIEVED WITHIN TOLERANCE.

 AVERAGE MOMENT                      0.00       TIME AVG. MOMENT       12.2    
                                                (FROM FORCE     FIELD)
 LARGEST RESIDUAL MOMENT             17.7       AT NODE   10000000   DOF  5
 LARGEST INCREMENT OF ROTATION      1.971E-03   AT NODE        307   DOF  4
 LARGEST CORRECTION TO ROTATION    -4.939E-06   AT NODE        307   DOF  6
          THE MOMENT    IS ZERO EVERYWHERE BUT THE MOMENT    RESIDUAL OR
          THE ROTATION CORRECTION IS NON-ZERO

  NUMBER OF EQUATIONS =      1407     NUMBER OF RHS =    1
  NUMBER OF FLOATING PT. OPERATIONS =  9.92E+06

  USING THE DIRECT SOLVER WITH  42 PROCESSORS

     CHECK POINT   START OF SOLVER    

     CHECK POINT  END OF SOLVER       

       ELAPSED USER TIME (SEC)      =  0.30000    
       ELAPSED SYSTEM TIME (SEC)    =  0.12000    
       ELAPSED TOTAL CPU TIME (SEC) =  0.42000    
       ELAPSED WALLCLOCK TIME (SEC) =          0

               CONVERGENCE CHECKS FOR EQUILIBRIUM ITERATION     3


 AVERAGE FORCE                       16.8       TIME AVG. FORCE        13.3    
 LARGEST RESIDUAL FORCE             2.206E-03   AT NODE   10000000   DOF  1
 LARGEST INCREMENT OF DISP.         5.543E-02   AT NODE       1035   DOF  3
 LARGEST CORRECTION TO DISP.        2.802E-06   AT NODE        828   DOF  3
          THE FORCE     EQUILIBRIUM EQUATIONS HAVE CONVERGED

 AVERAGE MOMENT                      0.00       TIME AVG. MOMENT       12.2    
                                                (FROM FORCE     FIELD)
 LARGEST RESIDUAL MOMENT             1.04       AT NODE   10000000   DOF  5
 LARGEST INCREMENT OF ROTATION      1.971E-03   AT NODE        307   DOF  4
 LARGEST CORRECTION TO ROTATION     1.519E-07   AT NODE        307   DOF  5
          ALL ROTATION CORRECTIONS ARE ZERO
          THE MOMENT    IS ZERO EVERYWHERE BUT THE MOMENT    RESIDUAL OR
          THE ROTATION CORRECTION IS NON-ZERO

  NUMBER OF EQUATIONS =      1407     NUMBER OF RHS =    1
  NUMBER OF FLOATING PT. OPERATIONS =  9.92E+06

  USING THE DIRECT SOLVER WITH  42 PROCESSORS

     CHECK POINT   START OF SOLVER    

     CHECK POINT  END OF SOLVER       

       ELAPSED USER TIME (SEC)      =  0.26000    
       ELAPSED SYSTEM TIME (SEC)    =  0.13000    
       ELAPSED TOTAL CPU TIME (SEC) =  0.39000    
       ELAPSED WALLCLOCK TIME (SEC) =          0

               CONVERGENCE CHECKS FOR EQUILIBRIUM ITERATION     4


 AVERAGE FORCE                       16.8       TIME AVG. FORCE        13.3    
 LARGEST RESIDUAL FORCE            -4.865E-05   AT NODE   10000000   DOF  1
 LARGEST INCREMENT OF DISP.         5.543E-02   AT NODE       1035   DOF  3
 LARGEST CORRECTION TO DISP.        1.671E-07   AT NODE        828   DOF  3
          THE FORCE     EQUILIBRIUM EQUATIONS HAVE CONVERGED

 AVERAGE MOMENT                      0.00       TIME AVG. MOMENT       12.2    
                                                (FROM FORCE     FIELD)
 LARGEST RESIDUAL MOMENT            6.207E-02   AT NODE   10000000   DOF  5
 LARGEST INCREMENT OF ROTATION      1.971E-03   AT NODE        307   DOF  4
 LARGEST CORRECTION TO ROTATION     9.016E-09   AT NODE        307   DOF  5
          ALL ROTATION CORRECTIONS ARE ZERO
          THE MOMENT    IS ZERO EVERYWHERE BUT THE MOMENT    RESIDUAL OR
          THE ROTATION CORRECTION IS NON-ZERO

  NUMBER OF EQUATIONS =      1407     NUMBER OF RHS =    1
  NUMBER OF FLOATING PT. OPERATIONS =  9.92E+06

  USING THE DIRECT SOLVER WITH  42 PROCESSORS

     CHECK POINT   START OF SOLVER    

     CHECK POINT  END OF SOLVER       

       ELAPSED USER TIME (SEC)      =  0.25000    
       ELAPSED SYSTEM TIME (SEC)    =  9.00000E-02
       ELAPSED TOTAL CPU TIME (SEC) =  0.34000    
       ELAPSED WALLCLOCK TIME (SEC) =          0

               CONVERGENCE CHECKS FOR EQUILIBRIUM ITERATION     5


 AVERAGE FORCE                       16.8       TIME AVG. FORCE        13.3    
 LARGEST RESIDUAL FORCE            -1.207E-06   AT NODE   10000000   DOF  2
 LARGEST INCREMENT OF DISP.         5.543E-02   AT NODE       1035   DOF  3
 LARGEST CORRECTION TO DISP.        1.000E-08   AT NODE        828   DOF  3
          THE FORCE     EQUILIBRIUM EQUATIONS HAVE CONVERGED

 AVERAGE MOMENT                      0.00       TIME AVG. MOMENT       12.2    
                                                (FROM FORCE     FIELD)
 LARGEST RESIDUAL MOMENT            3.690E-03   AT NODE   10000000   DOF  5
 LARGEST INCREMENT OF ROTATION      1.971E-03   AT NODE        307   DOF  4
 LARGEST CORRECTION TO ROTATION     5.374E-10   AT NODE        307   DOF  5
          ALL ROTATION CORRECTIONS ARE ZERO

 ITERATION SUMMARY FOR THE INCREMENT:   5 TOTAL ITERATIONS, OF WHICH
   0 ARE SEVERE DISCONTINUITY ITERATIONS AND  5 ARE EQUILIBRIUM ITERATIONS.

 TIME INCREMENT COMPLETED  5.000E-02,  FRACTION OF STEP COMPLETED  0.100    
 STEP TIME COMPLETED       0.100    ,  TOTAL TIME COMPLETED        0.100    


  INCREMENT     3 STARTS. ATTEMPT NUMBER  1, TIME INCREMENT  5.000E-02

  NUMBER OF EQUATIONS =      1407     NUMBER OF RHS =    1
  NUMBER OF FLOATING PT. OPERATIONS =  9.92E+06

  USING THE DIRECT SOLVER WITH  42 PROCESSORS

     CHECK POINT   START OF SOLVER    

     CHECK POINT  END OF SOLVER       

       ELAPSED USER TIME (SEC)      =  0.30000    
       ELAPSED SYSTEM TIME (SEC)    =  8.00000E-02
       ELAPSED TOTAL CPU TIME (SEC) =  0.38000    
       ELAPSED WALLCLOCK TIME (SEC) =          0

               CONVERGENCE CHECKS FOR EQUILIBRIUM ITERATION     1


 AVERAGE FORCE                       23.5       TIME AVG. FORCE        16.7    
 LARGEST RESIDUAL FORCE            -0.582       AT NODE   10000000   DOF  2
 LARGEST INCREMENT OF DISP.         5.661E-02   AT NODE       1035   DOF  3
 LARGEST CORRECTION TO DISP.        1.527E-03   AT NODE        746   DOF  3
          FORCE     EQUILIBRIUM NOT ACHIEVED WITHIN TOLERANCE.

 AVERAGE MOMENT                      0.00       TIME AVG. MOMENT       16.5    
                                                (FROM FORCE     FIELD)
 LARGEST RESIDUAL MOMENT             602.       AT NODE   10000000   DOF  5
 LARGEST INCREMENT OF ROTATION      1.955E-03   AT NODE        307   DOF  4
 LARGEST CORRECTION TO ROTATION     8.687E-05   AT NODE        307   DOF  5
          THE MOMENT    IS ZERO EVERYWHERE BUT THE MOMENT    RESIDUAL OR
          THE ROTATION CORRECTION IS NON-ZERO

  NUMBER OF EQUATIONS =      1407     NUMBER OF RHS =    1
  NUMBER OF FLOATING PT. OPERATIONS =  9.92E+06

  USING THE DIRECT SOLVER WITH  42 PROCESSORS

     CHECK POINT   START OF SOLVER    

     CHECK POINT  END OF SOLVER       

       ELAPSED USER TIME (SEC)      =   1.9800    
       ELAPSED SYSTEM TIME (SEC)    =  7.00000E-02
       ELAPSED TOTAL CPU TIME (SEC) =   2.0500    
       ELAPSED WALLCLOCK TIME (SEC) =          0

               CONVERGENCE CHECKS FOR EQUILIBRIUM ITERATION     2


 AVERAGE FORCE                       23.5       TIME AVG. FORCE        16.7    
 LARGEST RESIDUAL FORCE            -1.749E-02   AT NODE   10000000   DOF  1
 LARGEST INCREMENT OF DISP.         5.668E-02   AT NODE       1035   DOF  3
 LARGEST CORRECTION TO DISP.        8.876E-05   AT NODE        746   DOF  3
          THE FORCE     EQUILIBRIUM EQUATIONS HAVE CONVERGED

 AVERAGE MOMENT                      0.00       TIME AVG. MOMENT       16.5    
                                                (FROM FORCE     FIELD)
 LARGEST RESIDUAL MOMENT             51.5       AT NODE   10000000   DOF  5
 LARGEST INCREMENT OF ROTATION      1.955E-03   AT NODE        307   DOF  4
 LARGEST CORRECTION TO ROTATION     5.007E-06   AT NODE        307   DOF  5
          THE MOMENT    IS ZERO EVERYWHERE BUT THE MOMENT    RESIDUAL OR
          THE ROTATION CORRECTION IS NON-ZERO

  NUMBER OF EQUATIONS =      1407     NUMBER OF RHS =    1
  NUMBER OF FLOATING PT. OPERATIONS =  9.92E+06

  USING THE DIRECT SOLVER WITH  42 PROCESSORS

     CHECK POINT   START OF SOLVER    

     CHECK POINT  END OF SOLVER       

       ELAPSED USER TIME (SEC)      =  0.27000    
       ELAPSED SYSTEM TIME (SEC)    =  8.00000E-02
       ELAPSED TOTAL CPU TIME (SEC) =  0.35000    
       ELAPSED WALLCLOCK TIME (SEC) =          0

               CONVERGENCE CHECKS FOR EQUILIBRIUM ITERATION     3


 AVERAGE FORCE                       23.5       TIME AVG. FORCE        16.7    
 LARGEST RESIDUAL FORCE            -1.211E-03   AT NODE   10000000   DOF  2
 LARGEST INCREMENT OF DISP.         5.669E-02   AT NODE       1035   DOF  3
 LARGEST CORRECTION TO DISP.        7.657E-06   AT NODE        746   DOF  3
          THE FORCE     EQUILIBRIUM EQUATIONS HAVE CONVERGED

 AVERAGE MOMENT                      0.00       TIME AVG. MOMENT       16.5    
                                                (FROM FORCE     FIELD)
 LARGEST RESIDUAL MOMENT             4.41       AT NODE   10000000   DOF  5
 LARGEST INCREMENT OF ROTATION      1.955E-03   AT NODE        307   DOF  4
 LARGEST CORRECTION TO ROTATION     4.301E-07   AT NODE        307   DOF  5
          ALL ROTATION CORRECTIONS ARE ZERO
          THE MOMENT    IS ZERO EVERYWHERE BUT THE MOMENT    RESIDUAL OR
          THE ROTATION CORRECTION IS NON-ZERO

  NUMBER OF EQUATIONS =      1407     NUMBER OF RHS =    1
  NUMBER OF FLOATING PT. OPERATIONS =  9.92E+06

  USING THE DIRECT SOLVER WITH  42 PROCESSORS

     CHECK POINT   START OF SOLVER    

     CHECK POINT  END OF SOLVER       

       ELAPSED USER TIME (SEC)      =  0.23000    
       ELAPSED SYSTEM TIME (SEC)    =  0.10000    
       ELAPSED TOTAL CPU TIME (SEC) =  0.33000    
       ELAPSED WALLCLOCK TIME (SEC) =          0

               CONVERGENCE CHECKS FOR EQUILIBRIUM ITERATION     4


 AVERAGE FORCE                       23.5       TIME AVG. FORCE        16.7    
 LARGEST RESIDUAL FORCE            -1.082E-04   AT NODE   10000000   DOF  1
 LARGEST INCREMENT OF DISP.         5.669E-02   AT NODE       1035   DOF  3
 LARGEST CORRECTION TO DISP.        6.626E-07   AT NODE        828   DOF  3
          THE FORCE     EQUILIBRIUM EQUATIONS HAVE CONVERGED

 AVERAGE MOMENT                      0.00       TIME AVG. MOMENT       16.5    
                                                (FROM FORCE     FIELD)
 LARGEST RESIDUAL MOMENT            0.378       AT NODE   10000000   DOF  5
 LARGEST INCREMENT OF ROTATION      1.955E-03   AT NODE        307   DOF  4
 LARGEST CORRECTION TO ROTATION     3.694E-08   AT NODE        307   DOF  5
          ALL ROTATION CORRECTIONS ARE ZERO
          THE MOMENT    IS ZERO EVERYWHERE BUT THE MOMENT    RESIDUAL OR
          THE ROTATION CORRECTION IS NON-ZERO

  NUMBER OF EQUATIONS =      1407     NUMBER OF RHS =    1
  NUMBER OF FLOATING PT. OPERATIONS =  9.92E+06

  USING THE DIRECT SOLVER WITH  42 PROCESSORS

     CHECK POINT   START OF SOLVER    

     CHECK POINT  END OF SOLVER       

       ELAPSED USER TIME (SEC)      =  0.26000    
       ELAPSED SYSTEM TIME (SEC)    =  8.00000E-02
       ELAPSED TOTAL CPU TIME (SEC) =  0.34000    
       ELAPSED WALLCLOCK TIME (SEC) =          0

               CONVERGENCE CHECKS FOR EQUILIBRIUM ITERATION     5


 AVERAGE FORCE                       23.5       TIME AVG. FORCE        16.7    
 LARGEST RESIDUAL FORCE            -9.016E-06   AT NODE   10000000   DOF  1
 LARGEST INCREMENT OF DISP.         5.669E-02   AT NODE       1035   DOF  3
 LARGEST CORRECTION TO DISP.        5.726E-08   AT NODE        828   DOF  3
          THE FORCE     EQUILIBRIUM EQUATIONS HAVE CONVERGED

 AVERAGE MOMENT                      0.00       TIME AVG. MOMENT       16.5    
                                                (FROM FORCE     FIELD)
 LARGEST RESIDUAL MOMENT            3.242E-02   AT NODE   10000000   DOF  5
 LARGEST INCREMENT OF ROTATION      1.955E-03   AT NODE        307   DOF  4
 LARGEST CORRECTION TO ROTATION     3.172E-09   AT NODE        307   DOF  5
          ALL ROTATION CORRECTIONS ARE ZERO

 ITERATION SUMMARY FOR THE INCREMENT:   5 TOTAL ITERATIONS, OF WHICH
   0 ARE SEVERE DISCONTINUITY ITERATIONS AND  5 ARE EQUILIBRIUM ITERATIONS.

 TIME INCREMENT COMPLETED  5.000E-02,  FRACTION OF STEP COMPLETED  0.150    
 STEP TIME COMPLETED       0.150    ,  TOTAL TIME COMPLETED        0.150    


  INCREMENT     4 STARTS. ATTEMPT NUMBER  1, TIME INCREMENT  5.000E-02

  NUMBER OF EQUATIONS =      1407     NUMBER OF RHS =    1
  NUMBER OF FLOATING PT. OPERATIONS =  9.92E+06

  USING THE DIRECT SOLVER WITH  42 PROCESSORS

     CHECK POINT   START OF SOLVER    

     CHECK POINT  END OF SOLVER       

       ELAPSED USER TIME (SEC)      =  0.26000    
       ELAPSED SYSTEM TIME (SEC)    =  9.00000E-02
       ELAPSED TOTAL CPU TIME (SEC) =  0.35000    
       ELAPSED WALLCLOCK TIME (SEC) =          0

               CONVERGENCE CHECKS FOR EQUILIBRIUM ITERATION     1


 AVERAGE FORCE                       30.0       TIME AVG. FORCE        20.0    
 LARGEST RESIDUAL FORCE             -2.40       AT NODE   10000000   DOF  2
 LARGEST INCREMENT OF DISP.         5.504E-02   AT NODE       1035   DOF  3
 LARGEST CORRECTION TO DISP.       -1.648E-03   AT NODE       1035   DOF  3
          FORCE     EQUILIBRIUM NOT ACHIEVED WITHIN TOLERANCE.

 AVERAGE MOMENT                      0.00       TIME AVG. MOMENT       20.7    
                                                (FROM FORCE     FIELD)
 LARGEST RESIDUAL MOMENT            -281.       AT NODE   10000000   DOF  5
 LARGEST INCREMENT OF ROTATION      1.840E-03   AT NODE        307   DOF  4
 LARGEST CORRECTION TO ROTATION    -1.154E-04   AT NODE        307   DOF  4
          THE MOMENT    IS ZERO EVERYWHERE BUT THE MOMENT    RESIDUAL OR
          THE ROTATION CORRECTION IS NON-ZERO

  NUMBER OF EQUATIONS =      1407     NUMBER OF RHS =    1
  NUMBER OF FLOATING PT. OPERATIONS =  9.92E+06

  USING THE DIRECT SOLVER WITH  42 PROCESSORS

     CHECK POINT   START OF SOLVER    

     CHECK POINT  END OF SOLVER       

       ELAPSED USER TIME (SEC)      =  0.27000    
       ELAPSED SYSTEM TIME (SEC)    =  8.00000E-02
       ELAPSED TOTAL CPU TIME (SEC) =  0.35000    
       ELAPSED WALLCLOCK TIME (SEC) =          0

               CONVERGENCE CHECKS FOR EQUILIBRIUM ITERATION     2


 AVERAGE FORCE                       30.0       TIME AVG. FORCE        20.0    
 LARGEST RESIDUAL FORCE             7.791E-02   AT NODE   10000000   DOF  2
 LARGEST INCREMENT OF DISP.         5.492E-02   AT NODE       1035   DOF  3
 LARGEST CORRECTION TO DISP.       -1.236E-04   AT NODE       1035   DOF  3
          THE FORCE     EQUILIBRIUM EQUATIONS HAVE CONVERGED

 AVERAGE MOMENT                      0.00       TIME AVG. MOMENT       20.7    
                                                (FROM FORCE     FIELD)
 LARGEST RESIDUAL MOMENT            -32.8       AT NODE   10000000   DOF  5
 LARGEST INCREMENT OF ROTATION      1.832E-03   AT NODE        307   DOF  4
 LARGEST CORRECTION TO ROTATION    -7.788E-06   AT NODE        307   DOF  4
          THE MOMENT    IS ZERO EVERYWHERE BUT THE MOMENT    RESIDUAL OR
          THE ROTATION CORRECTION IS NON-ZERO

  NUMBER OF EQUATIONS =      1407     NUMBER OF RHS =    1
  NUMBER OF FLOATING PT. OPERATIONS =  9.92E+06

  USING THE DIRECT SOLVER WITH  42 PROCESSORS

     CHECK POINT   START OF SOLVER    

     CHECK POINT  END OF SOLVER       

       ELAPSED USER TIME (SEC)      =  0.24000    
       ELAPSED SYSTEM TIME (SEC)    =  0.10000    
       ELAPSED TOTAL CPU TIME (SEC) =  0.34000    
       ELAPSED WALLCLOCK TIME (SEC) =          0

               CONVERGENCE CHECKS FOR EQUILIBRIUM ITERATION     3


 AVERAGE FORCE                       30.0       TIME AVG. FORCE        20.0    
 LARGEST RESIDUAL FORCE             1.816E-03   AT NODE   10000000   DOF  2
 LARGEST INCREMENT OF DISP.         5.491E-02   AT NODE       1035   DOF  3
 LARGEST CORRECTION TO DISP.       -1.165E-05   AT NODE       1035   DOF  3
          THE FORCE     EQUILIBRIUM EQUATIONS HAVE CONVERGED

 AVERAGE MOMENT                      0.00       TIME AVG. MOMENT       20.7    
                                                (FROM FORCE     FIELD)
 LARGEST RESIDUAL MOMENT            -3.76       AT NODE   10000000   DOF  5
 LARGEST INCREMENT OF ROTATION      1.831E-03   AT NODE        307   DOF  4
 LARGEST CORRECTION TO ROTATION    -6.667E-07   AT NODE        307   DOF  4
          ALL ROTATION CORRECTIONS ARE ZERO
          THE MOMENT    IS ZERO EVERYWHERE BUT THE MOMENT    RESIDUAL OR
          THE ROTATION CORRECTION IS NON-ZERO

  NUMBER OF EQUATIONS =      1407     NUMBER OF RHS =    1
  NUMBER OF FLOATING PT. OPERATIONS =  9.92E+06

  USING THE DIRECT SOLVER WITH  42 PROCESSORS

     CHECK POINT   START OF SOLVER    

     CHECK POINT  END OF SOLVER       

       ELAPSED USER TIME (SEC)      =  0.26000    
       ELAPSED SYSTEM TIME (SEC)    =  9.00000E-02
       ELAPSED TOTAL CPU TIME (SEC) =  0.35000    
       ELAPSED WALLCLOCK TIME (SEC) =          0

               CONVERGENCE CHECKS FOR EQUILIBRIUM ITERATION     4


 AVERAGE FORCE                       30.0       TIME AVG. FORCE        20.0    
 LARGEST RESIDUAL FORCE             2.724E-04   AT NODE   10000000   DOF  2
 LARGEST INCREMENT OF DISP.         5.490E-02   AT NODE       1035   DOF  3
 LARGEST CORRECTION TO DISP.       -1.122E-06   AT NODE       1035   DOF  3
          THE FORCE     EQUILIBRIUM EQUATIONS HAVE CONVERGED

 AVERAGE MOMENT                      0.00       TIME AVG. MOMENT       20.7    
                                                (FROM FORCE     FIELD)
 LARGEST RESIDUAL MOMENT           -0.430       AT NODE   10000000   DOF  5
 LARGEST INCREMENT OF ROTATION      1.831E-03   AT NODE        307   DOF  4
 LARGEST CORRECTION TO ROTATION    -5.746E-08   AT NODE        307   DOF  4
          ALL ROTATION CORRECTIONS ARE ZERO
          THE MOMENT    IS ZERO EVERYWHERE BUT THE MOMENT    RESIDUAL OR
          THE ROTATION CORRECTION IS NON-ZERO

  NUMBER OF EQUATIONS =      1407     NUMBER OF RHS =    1
  NUMBER OF FLOATING PT. OPERATIONS =  9.92E+06

  USING THE DIRECT SOLVER WITH  42 PROCESSORS

     CHECK POINT   START OF SOLVER    

     CHECK POINT  END OF SOLVER       

       ELAPSED USER TIME (SEC)      =  0.25000    
       ELAPSED SYSTEM TIME (SEC)    =  8.00000E-02
       ELAPSED TOTAL CPU TIME (SEC) =  0.33000    
       ELAPSED WALLCLOCK TIME (SEC) =          0

               CONVERGENCE CHECKS FOR EQUILIBRIUM ITERATION     5


 AVERAGE FORCE                       30.0       TIME AVG. FORCE        20.0    
 LARGEST RESIDUAL FORCE             2.447E-05   AT NODE   10000000   DOF  2
 LARGEST INCREMENT OF DISP.         5.490E-02   AT NODE       1035   DOF  3
 LARGEST CORRECTION TO DISP.       -1.102E-07   AT NODE       1035   DOF  3
          THE FORCE     EQUILIBRIUM EQUATIONS HAVE CONVERGED

 AVERAGE MOMENT                      0.00       TIME AVG. MOMENT       20.7    
                                                (FROM FORCE     FIELD)
 LARGEST RESIDUAL MOMENT           -4.898E-02   AT NODE   10000000   DOF  5
 LARGEST INCREMENT OF ROTATION      1.831E-03   AT NODE        307   DOF  4
 LARGEST CORRECTION TO ROTATION    -4.977E-09   AT NODE        307   DOF  4
          ALL ROTATION CORRECTIONS ARE ZERO

 ITERATION SUMMARY FOR THE INCREMENT:   5 TOTAL ITERATIONS, OF WHICH
   0 ARE SEVERE DISCONTINUITY ITERATIONS AND  5 ARE EQUILIBRIUM ITERATIONS.

 TIME INCREMENT COMPLETED  5.000E-02,  FRACTION OF STEP COMPLETED  0.200    
 STEP TIME COMPLETED       0.200    ,  TOTAL TIME COMPLETED        0.200    


  INCREMENT     5 STARTS. ATTEMPT NUMBER  1, TIME INCREMENT  5.000E-02

  NUMBER OF EQUATIONS =      1407     NUMBER OF RHS =    1
  NUMBER OF FLOATING PT. OPERATIONS =  9.92E+06

  USING THE DIRECT SOLVER WITH  42 PROCESSORS

     CHECK POINT   START OF SOLVER    

     CHECK POINT  END OF SOLVER       

       ELAPSED USER TIME (SEC)      =  0.27000    
       ELAPSED SYSTEM TIME (SEC)    =  6.00000E-02
       ELAPSED TOTAL CPU TIME (SEC) =  0.33000    
       ELAPSED WALLCLOCK TIME (SEC) =          0

               CONVERGENCE CHECKS FOR EQUILIBRIUM ITERATION     1


 AVERAGE FORCE                       36.5       TIME AVG. FORCE        23.3    
 LARGEST RESIDUAL FORCE             0.917       AT NODE   10000000   DOF  1
 LARGEST INCREMENT OF DISP.         5.398E-02   AT NODE       1035   DOF  3
 LARGEST CORRECTION TO DISP.       -9.289E-04   AT NODE       1035   DOF  3
          FORCE     EQUILIBRIUM NOT ACHIEVED WITHIN TOLERANCE.

 AVERAGE MOMENT                      0.00       TIME AVG. MOMENT       24.8    
                                                (FROM FORCE     FIELD)
 LARGEST RESIDUAL MOMENT            -504.       AT NODE   10000000   DOF  5
 LARGEST INCREMENT OF ROTATION      1.794E-03   AT NODE        307   DOF  4
 LARGEST CORRECTION TO ROTATION    -3.706E-05   AT NODE        307   DOF  4
          THE MOMENT    IS ZERO EVERYWHERE BUT THE MOMENT    RESIDUAL OR
          THE ROTATION CORRECTION IS NON-ZERO

  NUMBER OF EQUATIONS =      1407     NUMBER OF RHS =    1
  NUMBER OF FLOATING PT. OPERATIONS =  9.92E+06

  USING THE DIRECT SOLVER WITH  42 PROCESSORS

     CHECK POINT   START OF SOLVER    

     CHECK POINT  END OF SOLVER       

       ELAPSED USER TIME (SEC)      =  0.27000    
       ELAPSED SYSTEM TIME (SEC)    =  8.00000E-02
       ELAPSED TOTAL CPU TIME (SEC) =  0.35000    
       ELAPSED WALLCLOCK TIME (SEC) =          0

               CONVERGENCE CHECKS FOR EQUILIBRIUM ITERATION     2


 AVERAGE FORCE                       36.5       TIME AVG. FORCE        23.3    
 LARGEST RESIDUAL FORCE             1.796E-02   AT NODE   10000000   DOF  2
 LARGEST INCREMENT OF DISP.         5.388E-02   AT NODE       1035   DOF  3
 LARGEST CORRECTION TO DISP.       -9.583E-05   AT NODE        993   DOF  3
          THE FORCE     EQUILIBRIUM EQUATIONS HAVE CONVERGED

 AVERAGE MOMENT                      0.00       TIME AVG. MOMENT       24.8    
                                                (FROM FORCE     FIELD)
 LARGEST RESIDUAL MOMENT            -69.2       AT NODE   10000000   DOF  5
 LARGEST INCREMENT OF ROTATION      1.791E-03   AT NODE        307   DOF  4
 LARGEST CORRECTION TO ROTATION    -4.145E-06   AT NODE        307   DOF  5
          THE MOMENT    IS ZERO EVERYWHERE BUT THE MOMENT    RESIDUAL OR
          THE ROTATION CORRECTION IS NON-ZERO

  NUMBER OF EQUATIONS =      1407     NUMBER OF RHS =    1
  NUMBER OF FLOATING PT. OPERATIONS =  9.92E+06

  USING THE DIRECT SOLVER WITH  42 PROCESSORS

     CHECK POINT   START OF SOLVER    

     CHECK POINT  END OF SOLVER       

       ELAPSED USER TIME (SEC)      =  0.25000    
       ELAPSED SYSTEM TIME (SEC)    =  8.00000E-02
       ELAPSED TOTAL CPU TIME (SEC) =  0.33000    
       ELAPSED WALLCLOCK TIME (SEC) =          0

               CONVERGENCE CHECKS FOR EQUILIBRIUM ITERATION     3


 AVERAGE FORCE                       36.5       TIME AVG. FORCE        23.3    
 LARGEST RESIDUAL FORCE             3.843E-03   AT NODE   10000000   DOF  1
 LARGEST INCREMENT OF DISP.         5.387E-02   AT NODE       1035   DOF  3
 LARGEST CORRECTION TO DISP.       -1.212E-05   AT NODE        993   DOF  3
          THE FORCE     EQUILIBRIUM EQUATIONS HAVE CONVERGED

 AVERAGE MOMENT                      0.00       TIME AVG. MOMENT       24.8    
                                                (FROM FORCE     FIELD)
 LARGEST RESIDUAL MOMENT            -9.50       AT NODE   10000000   DOF  5
 LARGEST INCREMENT OF ROTATION      1.791E-03   AT NODE        307   DOF  4
 LARGEST CORRECTION TO ROTATION    -5.613E-07   AT NODE        307   DOF  5
          ALL ROTATION CORRECTIONS ARE ZERO
          THE MOMENT    IS ZERO EVERYWHERE BUT THE MOMENT    RESIDUAL OR
          THE ROTATION CORRECTION IS NON-ZERO

  NUMBER OF EQUATIONS =      1407     NUMBER OF RHS =    1
  NUMBER OF FLOATING PT. OPERATIONS =  9.92E+06

  USING THE DIRECT SOLVER WITH  42 PROCESSORS

     CHECK POINT   START OF SOLVER    

     CHECK POINT  END OF SOLVER       

       ELAPSED USER TIME (SEC)      =  0.27000    
       ELAPSED SYSTEM TIME (SEC)    =  9.00000E-02
       ELAPSED TOTAL CPU TIME (SEC) =  0.36000    
       ELAPSED WALLCLOCK TIME (SEC) =          0

               CONVERGENCE CHECKS FOR EQUILIBRIUM ITERATION     4


 AVERAGE FORCE                       36.5       TIME AVG. FORCE        23.3    
 LARGEST RESIDUAL FORCE             5.119E-04   AT NODE   10000000   DOF  1
 LARGEST INCREMENT OF DISP.         5.387E-02   AT NODE       1035   DOF  3
 LARGEST CORRECTION TO DISP.       -1.557E-06   AT NODE        993   DOF  3
          THE FORCE     EQUILIBRIUM EQUATIONS HAVE CONVERGED

 AVERAGE MOMENT                      0.00       TIME AVG. MOMENT       24.8    
                                                (FROM FORCE     FIELD)
 LARGEST RESIDUAL MOMENT            -1.30       AT NODE   10000000   DOF  5
 LARGEST INCREMENT OF ROTATION      1.791E-03   AT NODE        307   DOF  4
 LARGEST CORRECTION TO ROTATION    -7.625E-08   AT NODE        307   DOF  5
          ALL ROTATION CORRECTIONS ARE ZERO
          THE MOMENT    IS ZERO EVERYWHERE BUT THE MOMENT    RESIDUAL OR
          THE ROTATION CORRECTION IS NON-ZERO

  NUMBER OF EQUATIONS =      1407     NUMBER OF RHS =    1
  NUMBER OF FLOATING PT. OPERATIONS =  9.92E+06

  USING THE DIRECT SOLVER WITH  42 PROCESSORS

     CHECK POINT   START OF SOLVER    

     CHECK POINT  END OF SOLVER       

       ELAPSED USER TIME (SEC)      =  0.27000    
       ELAPSED SYSTEM TIME (SEC)    =  6.00000E-02
       ELAPSED TOTAL CPU TIME (SEC) =  0.33000    
       ELAPSED WALLCLOCK TIME (SEC) =          0

               CONVERGENCE CHECKS FOR EQUILIBRIUM ITERATION     5


 AVERAGE FORCE                       36.5       TIME AVG. FORCE        23.3    
 LARGEST RESIDUAL FORCE             7.191E-05   AT NODE   10000000   DOF  1
 LARGEST INCREMENT OF DISP.         5.387E-02   AT NODE       1035   DOF  3
 LARGEST CORRECTION TO DISP.       -2.028E-07   AT NODE        993   DOF  3
          THE FORCE     EQUILIBRIUM EQUATIONS HAVE CONVERGED

 AVERAGE MOMENT                      0.00       TIME AVG. MOMENT       24.8    
                                                (FROM FORCE     FIELD)
 LARGEST RESIDUAL MOMENT           -0.179       AT NODE   10000000   DOF  5
 LARGEST INCREMENT OF ROTATION      1.791E-03   AT NODE        307   DOF  4
 LARGEST CORRECTION TO ROTATION    -1.038E-08   AT NODE        307   DOF  5
          ALL ROTATION CORRECTIONS ARE ZERO
          THE MOMENT    IS ZERO EVERYWHERE BUT THE MOMENT    RESIDUAL OR
          THE ROTATION CORRECTION IS NON-ZERO

  NUMBER OF EQUATIONS =      1407     NUMBER OF RHS =    1
  NUMBER OF FLOATING PT. OPERATIONS =  9.92E+06

  USING THE DIRECT SOLVER WITH  42 PROCESSORS

     CHECK POINT   START OF SOLVER    

     CHECK POINT  END OF SOLVER       

       ELAPSED USER TIME (SEC)      =  0.21000    
       ELAPSED SYSTEM TIME (SEC)    =  0.12000    
       ELAPSED TOTAL CPU TIME (SEC) =  0.33000    
       ELAPSED WALLCLOCK TIME (SEC) =          0

               CONVERGENCE CHECKS FOR EQUILIBRIUM ITERATION     6


 AVERAGE FORCE                       36.5       TIME AVG. FORCE        23.3    
 LARGEST RESIDUAL FORCE             9.988E-06   AT NODE   10000000   DOF  1
 LARGEST INCREMENT OF DISP.         5.387E-02   AT NODE       1035   DOF  3
 LARGEST CORRECTION TO DISP.       -2.669E-08   AT NODE        993   DOF  3
          THE FORCE     EQUILIBRIUM EQUATIONS HAVE CONVERGED

 AVERAGE MOMENT                      0.00       TIME AVG. MOMENT       24.8    
                                                (FROM FORCE     FIELD)
 LARGEST RESIDUAL MOMENT           -2.452E-02   AT NODE   10000000   DOF  5
 LARGEST INCREMENT OF ROTATION      1.791E-03   AT NODE        307   DOF  4
 LARGEST CORRECTION TO ROTATION    -1.416E-09   AT NODE        307   DOF  5
          ALL ROTATION CORRECTIONS ARE ZERO

 ITERATION SUMMARY FOR THE INCREMENT:   6 TOTAL ITERATIONS, OF WHICH
   0 ARE SEVERE DISCONTINUITY ITERATIONS AND  6 ARE EQUILIBRIUM ITERATIONS.

 TIME INCREMENT COMPLETED  5.000E-02,  FRACTION OF STEP COMPLETED  0.250    
 STEP TIME COMPLETED       0.250    ,  TOTAL TIME COMPLETED        0.250    


  INCREMENT     6 STARTS. ATTEMPT NUMBER  1, TIME INCREMENT  5.000E-02

  NUMBER OF EQUATIONS =      1407     NUMBER OF RHS =    1
  NUMBER OF FLOATING PT. OPERATIONS =  9.92E+06

  USING THE DIRECT SOLVER WITH  42 PROCESSORS

     CHECK POINT   START OF SOLVER    

     CHECK POINT  END OF SOLVER       

       ELAPSED USER TIME (SEC)      =  0.27000    
       ELAPSED SYSTEM TIME (SEC)    =  8.00000E-02
       ELAPSED TOTAL CPU TIME (SEC) =  0.35000    
       ELAPSED WALLCLOCK TIME (SEC) =          0

               CONVERGENCE CHECKS FOR EQUILIBRIUM ITERATION     1


 AVERAGE FORCE                       42.9       TIME AVG. FORCE        26.6    
 LARGEST RESIDUAL FORCE              1.19       AT NODE   10000000   DOF  1
 LARGEST INCREMENT OF DISP.         5.337E-02   AT NODE       1035   DOF  3
 LARGEST CORRECTION TO DISP.       -5.538E-04   AT NODE        828   DOF  3
          FORCE     EQUILIBRIUM NOT ACHIEVED WITHIN TOLERANCE.

 AVERAGE MOMENT                      0.00       TIME AVG. MOMENT       28.9    
                                                (FROM FORCE     FIELD)
 LARGEST RESIDUAL MOMENT            -578.       AT NODE   10000000   DOF  5
 LARGEST INCREMENT OF ROTATION      1.788E-03   AT NODE        307   DOF  4
 LARGEST CORRECTION TO ROTATION    -3.072E-05   AT NODE        307   DOF  5
          THE MOMENT    IS ZERO EVERYWHERE BUT THE MOMENT    RESIDUAL OR
          THE ROTATION CORRECTION IS NON-ZERO

  NUMBER OF EQUATIONS =      1407     NUMBER OF RHS =    1
  NUMBER OF FLOATING PT. OPERATIONS =  9.92E+06

  USING THE DIRECT SOLVER WITH  42 PROCESSORS

     CHECK POINT   START OF SOLVER    

     CHECK POINT  END OF SOLVER       

       ELAPSED USER TIME (SEC)      =  0.23000    
       ELAPSED SYSTEM TIME (SEC)    =  9.00000E-02
       ELAPSED TOTAL CPU TIME (SEC) =  0.32000    
       ELAPSED WALLCLOCK TIME (SEC) =          0

               CONVERGENCE CHECKS FOR EQUILIBRIUM ITERATION     2


 AVERAGE FORCE                       42.9       TIME AVG. FORCE        26.6    
 LARGEST RESIDUAL FORCE             1.594E-02   AT NODE   10000000   DOF  1
 LARGEST INCREMENT OF DISP.         5.331E-02   AT NODE       1035   DOF  3
 LARGEST CORRECTION TO DISP.       -7.624E-05   AT NODE        828   DOF  3
          THE FORCE     EQUILIBRIUM EQUATIONS HAVE CONVERGED

 AVERAGE MOMENT                      0.00       TIME AVG. MOMENT       28.9    
                                                (FROM FORCE     FIELD)
 LARGEST RESIDUAL MOMENT            -94.4       AT NODE   10000000   DOF  5
 LARGEST INCREMENT OF ROTATION      1.788E-03   AT NODE        307   DOF  4
 LARGEST CORRECTION TO ROTATION    -4.270E-06   AT NODE        307   DOF  5
          THE MOMENT    IS ZERO EVERYWHERE BUT THE MOMENT    RESIDUAL OR
          THE ROTATION CORRECTION IS NON-ZERO

  NUMBER OF EQUATIONS =      1407     NUMBER OF RHS =    1
  NUMBER OF FLOATING PT. OPERATIONS =  9.92E+06

  USING THE DIRECT SOLVER WITH  42 PROCESSORS

     CHECK POINT   START OF SOLVER    

     CHECK POINT  END OF SOLVER       

       ELAPSED USER TIME (SEC)      =  0.21000    
       ELAPSED SYSTEM TIME (SEC)    =  0.11000    
       ELAPSED TOTAL CPU TIME (SEC) =  0.32000    
       ELAPSED WALLCLOCK TIME (SEC) =          0

               CONVERGENCE CHECKS FOR EQUILIBRIUM ITERATION     3


 AVERAGE FORCE                       42.9       TIME AVG. FORCE        26.6    
 LARGEST RESIDUAL FORCE             7.636E-03   AT NODE   10000000   DOF  1
 LARGEST INCREMENT OF DISP.         5.330E-02   AT NODE       1035   DOF  3
 LARGEST CORRECTION TO DISP.       -1.257E-05   AT NODE        828   DOF  3
          THE FORCE     EQUILIBRIUM EQUATIONS HAVE CONVERGED

 AVERAGE MOMENT                      0.00       TIME AVG. MOMENT       28.9    
                                                (FROM FORCE     FIELD)
 LARGEST RESIDUAL MOMENT            -15.3       AT NODE   10000000   DOF  5
 LARGEST INCREMENT OF ROTATION      1.788E-03   AT NODE        307   DOF  4
 LARGEST CORRECTION TO ROTATION    -7.005E-07   AT NODE        307   DOF  5
          ALL ROTATION CORRECTIONS ARE ZERO
          THE MOMENT    IS ZERO EVERYWHERE BUT THE MOMENT    RESIDUAL OR
          THE ROTATION CORRECTION IS NON-ZERO

  NUMBER OF EQUATIONS =      1407     NUMBER OF RHS =    1
  NUMBER OF FLOATING PT. OPERATIONS =  9.92E+06

  USING THE DIRECT SOLVER WITH  42 PROCESSORS

     CHECK POINT   START OF SOLVER    

     CHECK POINT  END OF SOLVER       

       ELAPSED USER TIME (SEC)      =  0.35000    
       ELAPSED SYSTEM TIME (SEC)    =  0.17000    
       ELAPSED TOTAL CPU TIME (SEC) =  0.52000    
       ELAPSED WALLCLOCK TIME (SEC) =          0

               CONVERGENCE CHECKS FOR EQUILIBRIUM ITERATION     4


 AVERAGE FORCE                       42.9       TIME AVG. FORCE        26.6    
 LARGEST RESIDUAL FORCE             1.083E-03   AT NODE   10000000   DOF  1
 LARGEST INCREMENT OF DISP.         5.330E-02   AT NODE       1035   DOF  3
 LARGEST CORRECTION TO DISP.       -2.022E-06   AT NODE        828   DOF  3
          THE FORCE     EQUILIBRIUM EQUATIONS HAVE CONVERGED

 AVERAGE MOMENT                      0.00       TIME AVG. MOMENT       28.9    
                                                (FROM FORCE     FIELD)
 LARGEST RESIDUAL MOMENT            -2.47       AT NODE   10000000   DOF  5
 LARGEST INCREMENT OF ROTATION      1.788E-03   AT NODE        307   DOF  4
 LARGEST CORRECTION TO ROTATION    -1.131E-07   AT NODE        307   DOF  5
          ALL ROTATION CORRECTIONS ARE ZERO
          THE MOMENT    IS ZERO EVERYWHERE BUT THE MOMENT    RESIDUAL OR
          THE ROTATION CORRECTION IS NON-ZERO

  NUMBER OF EQUATIONS =      1407     NUMBER OF RHS =    1
  NUMBER OF FLOATING PT. OPERATIONS =  9.92E+06

  USING THE DIRECT SOLVER WITH  42 PROCESSORS

     CHECK POINT   START OF SOLVER    

     CHECK POINT  END OF SOLVER       

       ELAPSED USER TIME (SEC)      =  0.24000    
       ELAPSED SYSTEM TIME (SEC)    =  8.00000E-02
       ELAPSED TOTAL CPU TIME (SEC) =  0.32000    
       ELAPSED WALLCLOCK TIME (SEC) =          0

               CONVERGENCE CHECKS FOR EQUILIBRIUM ITERATION     5


 AVERAGE FORCE                       42.9       TIME AVG. FORCE        26.6    
 LARGEST RESIDUAL FORCE             1.804E-04   AT NODE   10000000   DOF  1
 LARGEST INCREMENT OF DISP.         5.330E-02   AT NODE       1035   DOF  3
 LARGEST CORRECTION TO DISP.       -3.257E-07   AT NODE        828   DOF  3
          THE FORCE     EQUILIBRIUM EQUATIONS HAVE CONVERGED

 AVERAGE MOMENT                      0.00       TIME AVG. MOMENT       28.9    
                                                (FROM FORCE     FIELD)
 LARGEST RESIDUAL MOMENT           -0.399       AT NODE   10000000   DOF  5
 LARGEST INCREMENT OF ROTATION      1.788E-03   AT NODE        307   DOF  4
 LARGEST CORRECTION TO ROTATION    -1.827E-08   AT NODE        307   DOF  5
          ALL ROTATION CORRECTIONS ARE ZERO
          THE MOMENT    IS ZERO EVERYWHERE BUT THE MOMENT    RESIDUAL OR
          THE ROTATION CORRECTION IS NON-ZERO

  NUMBER OF EQUATIONS =      1407     NUMBER OF RHS =    1
  NUMBER OF FLOATING PT. OPERATIONS =  9.92E+06

  USING THE DIRECT SOLVER WITH  42 PROCESSORS

     CHECK POINT   START OF SOLVER    

     CHECK POINT  END OF SOLVER       

       ELAPSED USER TIME (SEC)      =  0.26000    
       ELAPSED SYSTEM TIME (SEC)    =  9.00000E-02
       ELAPSED TOTAL CPU TIME (SEC) =  0.35000    
       ELAPSED WALLCLOCK TIME (SEC) =          0

               CONVERGENCE CHECKS FOR EQUILIBRIUM ITERATION     6


 AVERAGE FORCE                       42.9       TIME AVG. FORCE        26.6    
 LARGEST RESIDUAL FORCE             2.903E-05   AT NODE   10000000   DOF  1
 LARGEST INCREMENT OF DISP.         5.330E-02   AT NODE       1035   DOF  3
 LARGEST CORRECTION TO DISP.       -5.256E-08   AT NODE        746   DOF  3
          THE FORCE     EQUILIBRIUM EQUATIONS HAVE CONVERGED

 AVERAGE MOMENT                      0.00       TIME AVG. MOMENT       28.9    
                                                (FROM FORCE     FIELD)
 LARGEST RESIDUAL MOMENT           -6.452E-02   AT NODE   10000000   DOF  5
 LARGEST INCREMENT OF ROTATION      1.788E-03   AT NODE        307   DOF  4
 LARGEST CORRECTION TO ROTATION    -2.952E-09   AT NODE        307   DOF  5
          ALL ROTATION CORRECTIONS ARE ZERO

 ITERATION SUMMARY FOR THE INCREMENT:   6 TOTAL ITERATIONS, OF WHICH
   0 ARE SEVERE DISCONTINUITY ITERATIONS AND  6 ARE EQUILIBRIUM ITERATIONS.

 TIME INCREMENT COMPLETED  5.000E-02,  FRACTION OF STEP COMPLETED  0.300    
 STEP TIME COMPLETED       0.300    ,  TOTAL TIME COMPLETED        0.300    


  INCREMENT     7 STARTS. ATTEMPT NUMBER  1, TIME INCREMENT  5.000E-02

  NUMBER OF EQUATIONS =      1407     NUMBER OF RHS =    1
  NUMBER OF FLOATING PT. OPERATIONS =  9.92E+06

  USING THE DIRECT SOLVER WITH  42 PROCESSORS

     CHECK POINT   START OF SOLVER    

     CHECK POINT  END OF SOLVER       

       ELAPSED USER TIME (SEC)      =  0.22000    
       ELAPSED SYSTEM TIME (SEC)    =  0.13000    
       ELAPSED TOTAL CPU TIME (SEC) =  0.35000    
       ELAPSED WALLCLOCK TIME (SEC) =          0

               CONVERGENCE CHECKS FOR EQUILIBRIUM ITERATION     1


 AVERAGE FORCE                       49.6       TIME AVG. FORCE        29.9    
 LARGEST RESIDUAL FORCE              1.61       AT NODE   10000000   DOF  1
 LARGEST INCREMENT OF DISP.         5.139E-02   AT NODE       1035   DOF  3
 LARGEST CORRECTION TO DISP.       -1.904E-03   AT NODE       1035   DOF  3
          FORCE     EQUILIBRIUM NOT ACHIEVED WITHIN TOLERANCE.

 AVERAGE MOMENT                      0.00       TIME AVG. MOMENT       32.9    
                                                (FROM FORCE     FIELD)
 LARGEST RESIDUAL MOMENT           -1.259E+03   AT NODE   10000000   DOF  5
 LARGEST INCREMENT OF ROTATION      1.694E-03   AT NODE        307   DOF  4
 LARGEST CORRECTION TO ROTATION    -9.448E-05   AT NODE        307   DOF  4
          THE MOMENT    IS ZERO EVERYWHERE BUT THE MOMENT    RESIDUAL OR
          THE ROTATION CORRECTION IS NON-ZERO

  NUMBER OF EQUATIONS =      1407     NUMBER OF RHS =    1
  NUMBER OF FLOATING PT. OPERATIONS =  9.92E+06

  USING THE DIRECT SOLVER WITH  42 PROCESSORS

     CHECK POINT   START OF SOLVER    

     CHECK POINT  END OF SOLVER       

       ELAPSED USER TIME (SEC)      =  0.19000    
       ELAPSED SYSTEM TIME (SEC)    =  0.15000    
       ELAPSED TOTAL CPU TIME (SEC) =  0.34000    
       ELAPSED WALLCLOCK TIME (SEC) =          0

               CONVERGENCE CHECKS FOR EQUILIBRIUM ITERATION     2


 AVERAGE FORCE                       49.6       TIME AVG. FORCE        29.9    
 LARGEST RESIDUAL FORCE             0.108       AT NODE   10000000   DOF  2
 LARGEST INCREMENT OF DISP.         5.114E-02   AT NODE       1035   DOF  3
 LARGEST CORRECTION TO DISP.       -2.560E-04   AT NODE       1035   DOF  3
          THE FORCE     EQUILIBRIUM EQUATIONS HAVE CONVERGED

 AVERAGE MOMENT                      0.00       TIME AVG. MOMENT       32.9    
                                                (FROM FORCE     FIELD)
 LARGEST RESIDUAL MOMENT            -229.       AT NODE   10000000   DOF  5
 LARGEST INCREMENT OF ROTATION      1.683E-03   AT NODE        307   DOF  4
 LARGEST CORRECTION TO ROTATION    -1.087E-05   AT NODE        307   DOF  4
          THE MOMENT    IS ZERO EVERYWHERE BUT THE MOMENT    RESIDUAL OR
          THE ROTATION CORRECTION IS NON-ZERO

  NUMBER OF EQUATIONS =      1407     NUMBER OF RHS =    1
  NUMBER OF FLOATING PT. OPERATIONS =  9.92E+06

  USING THE DIRECT SOLVER WITH  42 PROCESSORS

     CHECK POINT   START OF SOLVER    

     CHECK POINT  END OF SOLVER       

       ELAPSED USER TIME (SEC)      =  0.23000    
       ELAPSED SYSTEM TIME (SEC)    =  0.10000    
       ELAPSED TOTAL CPU TIME (SEC) =  0.33000    
       ELAPSED WALLCLOCK TIME (SEC) =          0

               CONVERGENCE CHECKS FOR EQUILIBRIUM ITERATION     3


 AVERAGE FORCE                       49.6       TIME AVG. FORCE        29.9    
 LARGEST RESIDUAL FORCE             1.893E-02   AT NODE   10000000   DOF  1
 LARGEST INCREMENT OF DISP.         5.110E-02   AT NODE       1035   DOF  3
 LARGEST CORRECTION TO DISP.       -4.105E-05   AT NODE        993   DOF  3
          THE FORCE     EQUILIBRIUM EQUATIONS HAVE CONVERGED

 AVERAGE MOMENT                      0.00       TIME AVG. MOMENT       32.9    
                                                (FROM FORCE     FIELD)
 LARGEST RESIDUAL MOMENT            -41.9       AT NODE   10000000   DOF  5
 LARGEST INCREMENT OF ROTATION      1.682E-03   AT NODE        307   DOF  4
 LARGEST CORRECTION TO ROTATION    -1.694E-06   AT NODE        307   DOF  5
          THE MOMENT    IS ZERO EVERYWHERE BUT THE MOMENT    RESIDUAL OR
          THE ROTATION CORRECTION IS NON-ZERO

  NUMBER OF EQUATIONS =      1407     NUMBER OF RHS =    1
  NUMBER OF FLOATING PT. OPERATIONS =  9.92E+06

  USING THE DIRECT SOLVER WITH  42 PROCESSORS

     CHECK POINT   START OF SOLVER    

     CHECK POINT  END OF SOLVER       

       ELAPSED USER TIME (SEC)      =  0.26000    
       ELAPSED SYSTEM TIME (SEC)    =  7.00000E-02
       ELAPSED TOTAL CPU TIME (SEC) =  0.33000    
       ELAPSED WALLCLOCK TIME (SEC) =          0

               CONVERGENCE CHECKS FOR EQUILIBRIUM ITERATION     4


 AVERAGE FORCE                       49.6       TIME AVG. FORCE        29.9    
 LARGEST RESIDUAL FORCE             3.238E-03   AT NODE   10000000   DOF  1
 LARGEST INCREMENT OF DISP.         5.109E-02   AT NODE       1035   DOF  3
 LARGEST CORRECTION TO DISP.       -6.762E-06   AT NODE        993   DOF  3
          THE FORCE     EQUILIBRIUM EQUATIONS HAVE CONVERGED

 AVERAGE MOMENT                      0.00       TIME AVG. MOMENT       32.9    
                                                (FROM FORCE     FIELD)
 LARGEST RESIDUAL MOMENT            -7.66       AT NODE   10000000   DOF  5
 LARGEST INCREMENT OF ROTATION      1.681E-03   AT NODE        307   DOF  4
 LARGEST CORRECTION TO ROTATION    -3.041E-07   AT NODE        307   DOF  5
          ALL ROTATION CORRECTIONS ARE ZERO
          THE MOMENT    IS ZERO EVERYWHERE BUT THE MOMENT    RESIDUAL OR
          THE ROTATION CORRECTION IS NON-ZERO

  NUMBER OF EQUATIONS =      1407     NUMBER OF RHS =    1
  NUMBER OF FLOATING PT. OPERATIONS =  9.92E+06

  USING THE DIRECT SOLVER WITH  42 PROCESSORS

     CHECK POINT   START OF SOLVER    

     CHECK POINT  END OF SOLVER       

       ELAPSED USER TIME (SEC)      =  0.23000    
       ELAPSED SYSTEM TIME (SEC)    =  0.11000    
       ELAPSED TOTAL CPU TIME (SEC) =  0.34000    
       ELAPSED WALLCLOCK TIME (SEC) =          0

               CONVERGENCE CHECKS FOR EQUILIBRIUM ITERATION     5


 AVERAGE FORCE                       49.6       TIME AVG. FORCE        29.9    
 LARGEST RESIDUAL FORCE             6.206E-04   AT NODE   10000000   DOF  1
 LARGEST INCREMENT OF DISP.         5.109E-02   AT NODE       1035   DOF  3
 LARGEST CORRECTION TO DISP.       -1.135E-06   AT NODE        993   DOF  3
          THE FORCE     EQUILIBRIUM EQUATIONS HAVE CONVERGED

 AVERAGE MOMENT                      0.00       TIME AVG. MOMENT       32.9    
                                                (FROM FORCE     FIELD)
 LARGEST RESIDUAL MOMENT            -1.40       AT NODE   10000000   DOF  5
 LARGEST INCREMENT OF ROTATION      1.681E-03   AT NODE        307   DOF  4
 LARGEST CORRECTION TO ROTATION    -5.492E-08   AT NODE        307   DOF  5
          ALL ROTATION CORRECTIONS ARE ZERO
          THE MOMENT    IS ZERO EVERYWHERE BUT THE MOMENT    RESIDUAL OR
          THE ROTATION CORRECTION IS NON-ZERO

  NUMBER OF EQUATIONS =      1407     NUMBER OF RHS =    1
  NUMBER OF FLOATING PT. OPERATIONS =  9.92E+06

  USING THE DIRECT SOLVER WITH  42 PROCESSORS

     CHECK POINT   START OF SOLVER    

     CHECK POINT  END OF SOLVER       

       ELAPSED USER TIME (SEC)      =  0.23000    
       ELAPSED SYSTEM TIME (SEC)    =  0.11000    
       ELAPSED TOTAL CPU TIME (SEC) =  0.34000    
       ELAPSED WALLCLOCK TIME (SEC) =          0

               CONVERGENCE CHECKS FOR EQUILIBRIUM ITERATION     6


 AVERAGE FORCE                       49.6       TIME AVG. FORCE        29.9    
 LARGEST RESIDUAL FORCE             1.153E-04   AT NODE   10000000   DOF  1
 LARGEST INCREMENT OF DISP.         5.109E-02   AT NODE       1035   DOF  3
 LARGEST CORRECTION TO DISP.       -1.938E-07   AT NODE        993   DOF  3
          THE FORCE     EQUILIBRIUM EQUATIONS HAVE CONVERGED

 AVERAGE MOMENT                      0.00       TIME AVG. MOMENT       32.9    
                                                (FROM FORCE     FIELD)
 LARGEST RESIDUAL MOMENT           -0.257       AT NODE   10000000   DOF  5
 LARGEST INCREMENT OF ROTATION      1.681E-03   AT NODE        307   DOF  4
 LARGEST CORRECTION TO ROTATION    -9.962E-09   AT NODE        307   DOF  5
          ALL ROTATION CORRECTIONS ARE ZERO
          THE MOMENT    IS ZERO EVERYWHERE BUT THE MOMENT    RESIDUAL OR
          THE ROTATION CORRECTION IS NON-ZERO

  NUMBER OF EQUATIONS =      1407     NUMBER OF RHS =    1
  NUMBER OF FLOATING PT. OPERATIONS =  9.92E+06

  USING THE DIRECT SOLVER WITH  42 PROCESSORS

     CHECK POINT   START OF SOLVER    

     CHECK POINT  END OF SOLVER       

       ELAPSED USER TIME (SEC)      =  0.20000    
       ELAPSED SYSTEM TIME (SEC)    =  0.11000    
       ELAPSED TOTAL CPU TIME (SEC) =  0.31000    
       ELAPSED WALLCLOCK TIME (SEC) =          0

               CONVERGENCE CHECKS FOR EQUILIBRIUM ITERATION     7


 AVERAGE FORCE                       49.6       TIME AVG. FORCE        29.9    
 LARGEST RESIDUAL FORCE             2.145E-05   AT NODE   10000000   DOF  1
 LARGEST INCREMENT OF DISP.         5.109E-02   AT NODE       1035   DOF  3
 LARGEST CORRECTION TO DISP.       -3.386E-08   AT NODE        828   DOF  3
          THE FORCE     EQUILIBRIUM EQUATIONS HAVE CONVERGED

 AVERAGE MOMENT                      0.00       TIME AVG. MOMENT       32.9    
                                                (FROM FORCE     FIELD)
 LARGEST RESIDUAL MOMENT           -4.719E-02   AT NODE   10000000   DOF  5
 LARGEST INCREMENT OF ROTATION      1.681E-03   AT NODE        307   DOF  4
 LARGEST CORRECTION TO ROTATION    -1.813E-09   AT NODE        307   DOF  5
          ALL ROTATION CORRECTIONS ARE ZERO

 ITERATION SUMMARY FOR THE INCREMENT:   7 TOTAL ITERATIONS, OF WHICH
   0 ARE SEVERE DISCONTINUITY ITERATIONS AND  7 ARE EQUILIBRIUM ITERATIONS.

 TIME INCREMENT COMPLETED  5.000E-02,  FRACTION OF STEP COMPLETED  0.350    
 STEP TIME COMPLETED       0.350    ,  TOTAL TIME COMPLETED        0.350    


  INCREMENT     8 STARTS. ATTEMPT NUMBER  1, TIME INCREMENT  5.000E-02

  NUMBER OF EQUATIONS =      1407     NUMBER OF RHS =    1
  NUMBER OF FLOATING PT. OPERATIONS =  9.92E+06

  USING THE DIRECT SOLVER WITH  42 PROCESSORS

     CHECK POINT   START OF SOLVER    

     CHECK POINT  END OF SOLVER       

       ELAPSED USER TIME (SEC)      =  0.20000    
       ELAPSED SYSTEM TIME (SEC)    =  0.14000    
       ELAPSED TOTAL CPU TIME (SEC) =  0.34000    
       ELAPSED WALLCLOCK TIME (SEC) =          0

               CONVERGENCE CHECKS FOR EQUILIBRIUM ITERATION     1


 AVERAGE FORCE                       56.6       TIME AVG. FORCE        33.2    
 LARGEST RESIDUAL FORCE             0.859       AT NODE   10000000   DOF  1
 LARGEST INCREMENT OF DISP.         4.901E-02   AT NODE       1035   DOF  3
 LARGEST CORRECTION TO DISP.        2.115E-03   AT NODE        315   DOF  3
          FORCE     EQUILIBRIUM NOT ACHIEVED WITHIN TOLERANCE.

 AVERAGE MOMENT                      0.00       TIME AVG. MOMENT       37.0    
                                                (FROM FORCE     FIELD)
 LARGEST RESIDUAL MOMENT            -831.       AT NODE   10000000   DOF  4
 LARGEST INCREMENT OF ROTATION      1.526E-03   AT NODE        307   DOF  4
 LARGEST CORRECTION TO ROTATION    -1.557E-04   AT NODE        307   DOF  4
          THE MOMENT    IS ZERO EVERYWHERE BUT THE MOMENT    RESIDUAL OR
          THE ROTATION CORRECTION IS NON-ZERO

  NUMBER OF EQUATIONS =      1407     NUMBER OF RHS =    1
  NUMBER OF FLOATING PT. OPERATIONS =  9.92E+06

  USING THE DIRECT SOLVER WITH  42 PROCESSORS

     CHECK POINT   START OF SOLVER    

     CHECK POINT  END OF SOLVER       

       ELAPSED USER TIME (SEC)      =  0.25000    
       ELAPSED SYSTEM TIME (SEC)    =  9.00000E-02
       ELAPSED TOTAL CPU TIME (SEC) =  0.34000    
       ELAPSED WALLCLOCK TIME (SEC) =          0

               CONVERGENCE CHECKS FOR EQUILIBRIUM ITERATION     2


 AVERAGE FORCE                       56.6       TIME AVG. FORCE        33.2    
 LARGEST RESIDUAL FORCE             0.149       AT NODE   10000000   DOF  2
 LARGEST INCREMENT OF DISP.         4.871E-02   AT NODE       1035   DOF  3
 LARGEST CORRECTION TO DISP.       -2.934E-04   AT NODE       1035   DOF  3
          THE FORCE     EQUILIBRIUM EQUATIONS HAVE CONVERGED

 AVERAGE MOMENT                      0.00       TIME AVG. MOMENT       37.0    
                                                (FROM FORCE     FIELD)
 LARGEST RESIDUAL MOMENT            -128.       AT NODE   10000000   DOF  4
 LARGEST INCREMENT OF ROTATION      1.505E-03   AT NODE        307   DOF  4
 LARGEST CORRECTION TO ROTATION    -2.081E-05   AT NODE        307   DOF  4
          THE MOMENT    IS ZERO EVERYWHERE BUT THE MOMENT    RESIDUAL OR
          THE ROTATION CORRECTION IS NON-ZERO

  NUMBER OF EQUATIONS =      1407     NUMBER OF RHS =    1
  NUMBER OF FLOATING PT. OPERATIONS =  9.92E+06

  USING THE DIRECT SOLVER WITH  42 PROCESSORS

     CHECK POINT   START OF SOLVER    

     CHECK POINT  END OF SOLVER       

       ELAPSED USER TIME (SEC)      =  0.27000    
       ELAPSED SYSTEM TIME (SEC)    =  6.00000E-02
       ELAPSED TOTAL CPU TIME (SEC) =  0.33000    
       ELAPSED WALLCLOCK TIME (SEC) =          0

               CONVERGENCE CHECKS FOR EQUILIBRIUM ITERATION     3


 AVERAGE FORCE                       56.6       TIME AVG. FORCE        33.2    
 LARGEST RESIDUAL FORCE             2.259E-02   AT NODE   10000000   DOF  2
 LARGEST INCREMENT OF DISP.         4.866E-02   AT NODE       1035   DOF  3
 LARGEST CORRECTION TO DISP.       -4.833E-05   AT NODE       1035   DOF  3
          THE FORCE     EQUILIBRIUM EQUATIONS HAVE CONVERGED

 AVERAGE MOMENT                      0.00       TIME AVG. MOMENT       37.0    
                                                (FROM FORCE     FIELD)
 LARGEST RESIDUAL MOMENT            -23.8       AT NODE   10000000   DOF  5
 LARGEST INCREMENT OF ROTATION      1.502E-03   AT NODE        307   DOF  4
 LARGEST CORRECTION TO ROTATION    -3.242E-06   AT NODE        307   DOF  4
          THE MOMENT    IS ZERO EVERYWHERE BUT THE MOMENT    RESIDUAL OR
          THE ROTATION CORRECTION IS NON-ZERO

  NUMBER OF EQUATIONS =      1407     NUMBER OF RHS =    1
  NUMBER OF FLOATING PT. OPERATIONS =  9.92E+06

  USING THE DIRECT SOLVER WITH  42 PROCESSORS

     CHECK POINT   START OF SOLVER    

     CHECK POINT  END OF SOLVER       

       ELAPSED USER TIME (SEC)      =  0.27000    
       ELAPSED SYSTEM TIME (SEC)    =  5.00000E-02
       ELAPSED TOTAL CPU TIME (SEC) =  0.32000    
       ELAPSED WALLCLOCK TIME (SEC) =          0

               CONVERGENCE CHECKS FOR EQUILIBRIUM ITERATION     4


 AVERAGE FORCE                       56.6       TIME AVG. FORCE        33.2    
 LARGEST RESIDUAL FORCE             3.745E-03   AT NODE   10000000   DOF  2
 LARGEST INCREMENT OF DISP.         4.866E-02   AT NODE       1035   DOF  3
 LARGEST CORRECTION TO DISP.       -8.060E-06   AT NODE       1035   DOF  3
          THE FORCE     EQUILIBRIUM EQUATIONS HAVE CONVERGED

 AVERAGE MOMENT                      0.00       TIME AVG. MOMENT       37.0    
                                                (FROM FORCE     FIELD)
 LARGEST RESIDUAL MOMENT            -4.81       AT NODE   10000000   DOF  5
 LARGEST INCREMENT OF ROTATION      1.501E-03   AT NODE        307   DOF  4
 LARGEST CORRECTION TO ROTATION    -5.051E-07   AT NODE        307   DOF  4
          ALL ROTATION CORRECTIONS ARE ZERO
          THE MOMENT    IS ZERO EVERYWHERE BUT THE MOMENT    RESIDUAL OR
          THE ROTATION CORRECTION IS NON-ZERO

  NUMBER OF EQUATIONS =      1407     NUMBER OF RHS =    1
  NUMBER OF FLOATING PT. OPERATIONS =  9.92E+06

  USING THE DIRECT SOLVER WITH  42 PROCESSORS

     CHECK POINT   START OF SOLVER    

     CHECK POINT  END OF SOLVER       

       ELAPSED USER TIME (SEC)      =  0.21000    
       ELAPSED SYSTEM TIME (SEC)    =  0.12000    
       ELAPSED TOTAL CPU TIME (SEC) =  0.33000    
       ELAPSED WALLCLOCK TIME (SEC) =          0

               CONVERGENCE CHECKS FOR EQUILIBRIUM ITERATION     5


 AVERAGE FORCE                       56.6       TIME AVG. FORCE        33.2    
 LARGEST RESIDUAL FORCE             6.169E-04   AT NODE   10000000   DOF  2
 LARGEST INCREMENT OF DISP.         4.866E-02   AT NODE       1035   DOF  3
 LARGEST CORRECTION TO DISP.       -1.363E-06   AT NODE       1035   DOF  3
          THE FORCE     EQUILIBRIUM EQUATIONS HAVE CONVERGED

 AVERAGE MOMENT                      0.00       TIME AVG. MOMENT       37.0    
                                                (FROM FORCE     FIELD)
 LARGEST RESIDUAL MOMENT           -0.974       AT NODE   10000000   DOF  5
 LARGEST INCREMENT OF ROTATION      1.501E-03   AT NODE        307   DOF  4
 LARGEST CORRECTION TO ROTATION    -7.861E-08   AT NODE        307   DOF  4
          ALL ROTATION CORRECTIONS ARE ZERO
          THE MOMENT    IS ZERO EVERYWHERE BUT THE MOMENT    RESIDUAL OR
          THE ROTATION CORRECTION IS NON-ZERO

  NUMBER OF EQUATIONS =      1407     NUMBER OF RHS =    1
  NUMBER OF FLOATING PT. OPERATIONS =  9.92E+06

  USING THE DIRECT SOLVER WITH  42 PROCESSORS

     CHECK POINT   START OF SOLVER    

     CHECK POINT  END OF SOLVER       

       ELAPSED USER TIME (SEC)      =  0.22000    
       ELAPSED SYSTEM TIME (SEC)    =  0.10000    
       ELAPSED TOTAL CPU TIME (SEC) =  0.32000    
       ELAPSED WALLCLOCK TIME (SEC) =          0

               CONVERGENCE CHECKS FOR EQUILIBRIUM ITERATION     6


 AVERAGE FORCE                       56.6       TIME AVG. FORCE        33.2    
 LARGEST RESIDUAL FORCE             1.032E-04   AT NODE   10000000   DOF  2
 LARGEST INCREMENT OF DISP.         4.866E-02   AT NODE       1035   DOF  3
 LARGEST CORRECTION TO DISP.       -2.342E-07   AT NODE       1035   DOF  3
          THE FORCE     EQUILIBRIUM EQUATIONS HAVE CONVERGED

 AVERAGE MOMENT                      0.00       TIME AVG. MOMENT       37.0    
                                                (FROM FORCE     FIELD)
 LARGEST RESIDUAL MOMENT           -0.197       AT NODE   10000000   DOF  5
 LARGEST INCREMENT OF ROTATION      1.501E-03   AT NODE        307   DOF  4
 LARGEST CORRECTION TO ROTATION    -1.222E-08   AT NODE        307   DOF  4
          ALL ROTATION CORRECTIONS ARE ZERO
          THE MOMENT    IS ZERO EVERYWHERE BUT THE MOMENT    RESIDUAL OR
          THE ROTATION CORRECTION IS NON-ZERO

  NUMBER OF EQUATIONS =      1407     NUMBER OF RHS =    1
  NUMBER OF FLOATING PT. OPERATIONS =  9.92E+06

  USING THE DIRECT SOLVER WITH  42 PROCESSORS

     CHECK POINT   START OF SOLVER    

     CHECK POINT  END OF SOLVER       

       ELAPSED USER TIME (SEC)      =  0.25000    
       ELAPSED SYSTEM TIME (SEC)    =  8.00000E-02
       ELAPSED TOTAL CPU TIME (SEC) =  0.33000    
       ELAPSED WALLCLOCK TIME (SEC) =          0

               CONVERGENCE CHECKS FOR EQUILIBRIUM ITERATION     7


 AVERAGE FORCE                       56.6       TIME AVG. FORCE        33.2    
 LARGEST RESIDUAL FORCE             1.751E-05   AT NODE   10000000   DOF  2
 LARGEST INCREMENT OF DISP.         4.866E-02   AT NODE       1035   DOF  3
 LARGEST CORRECTION TO DISP.       -4.090E-08   AT NODE       1035   DOF  3
          THE FORCE     EQUILIBRIUM EQUATIONS HAVE CONVERGED

 AVERAGE MOMENT                      0.00       TIME AVG. MOMENT       37.0    
                                                (FROM FORCE     FIELD)
 LARGEST RESIDUAL MOMENT           -4.011E-02   AT NODE   10000000   DOF  5
 LARGEST INCREMENT OF ROTATION      1.501E-03   AT NODE        307   DOF  4
 LARGEST CORRECTION TO ROTATION    -1.894E-09   AT NODE        307   DOF  4
          ALL ROTATION CORRECTIONS ARE ZERO

 ITERATION SUMMARY FOR THE INCREMENT:   7 TOTAL ITERATIONS, OF WHICH
   0 ARE SEVERE DISCONTINUITY ITERATIONS AND  7 ARE EQUILIBRIUM ITERATIONS.

 TIME INCREMENT COMPLETED  5.000E-02,  FRACTION OF STEP COMPLETED  0.400    
 STEP TIME COMPLETED       0.400    ,  TOTAL TIME COMPLETED        0.400    


  INCREMENT     9 STARTS. ATTEMPT NUMBER  1, TIME INCREMENT  5.000E-02

  NUMBER OF EQUATIONS =      1407     NUMBER OF RHS =    1
  NUMBER OF FLOATING PT. OPERATIONS =  9.92E+06

  USING THE DIRECT SOLVER WITH  42 PROCESSORS

     CHECK POINT   START OF SOLVER    

     CHECK POINT  END OF SOLVER       

       ELAPSED USER TIME (SEC)      =  0.25000    
       ELAPSED SYSTEM TIME (SEC)    =  8.00000E-02
       ELAPSED TOTAL CPU TIME (SEC) =  0.33000    
       ELAPSED WALLCLOCK TIME (SEC) =          0

               CONVERGENCE CHECKS FOR EQUILIBRIUM ITERATION     1


 AVERAGE FORCE                       63.9       TIME AVG. FORCE        36.6    
 LARGEST RESIDUAL FORCE              1.15       AT NODE   10000000   DOF  2
 LARGEST INCREMENT OF DISP.         4.766E-02   AT NODE       1035   DOF  3
 LARGEST CORRECTION TO DISP.        1.089E-03   AT NODE        315   DOF  3
          FORCE     EQUILIBRIUM NOT ACHIEVED WITHIN TOLERANCE.

 AVERAGE MOMENT                      0.00       TIME AVG. MOMENT       41.1    
                                                (FROM FORCE     FIELD)
 LARGEST RESIDUAL MOMENT            -560.       AT NODE   10000000   DOF  4
 LARGEST INCREMENT OF ROTATION      1.417E-03   AT NODE        307   DOF  4
 LARGEST CORRECTION TO ROTATION    -8.442E-05   AT NODE        307   DOF  4
          THE MOMENT    IS ZERO EVERYWHERE BUT THE MOMENT    RESIDUAL OR
          THE ROTATION CORRECTION IS NON-ZERO

  NUMBER OF EQUATIONS =      1407     NUMBER OF RHS =    1
  NUMBER OF FLOATING PT. OPERATIONS =  9.92E+06

  USING THE DIRECT SOLVER WITH  42 PROCESSORS

     CHECK POINT   START OF SOLVER    

     CHECK POINT  END OF SOLVER       

       ELAPSED USER TIME (SEC)      =  0.24000    
       ELAPSED SYSTEM TIME (SEC)    =  0.13000    
       ELAPSED TOTAL CPU TIME (SEC) =  0.37000    
       ELAPSED WALLCLOCK TIME (SEC) =          0

               CONVERGENCE CHECKS FOR EQUILIBRIUM ITERATION     2


 AVERAGE FORCE                       63.9       TIME AVG. FORCE        36.6    
 LARGEST RESIDUAL FORCE             7.707E-02   AT NODE   10000000   DOF  2
 LARGEST INCREMENT OF DISP.         4.750E-02   AT NODE       1035   DOF  3
 LARGEST CORRECTION TO DISP.        1.668E-04   AT NODE        315   DOF  3
          THE FORCE     EQUILIBRIUM EQUATIONS HAVE CONVERGED

 AVERAGE MOMENT                      0.00       TIME AVG. MOMENT       41.1    
                                                (FROM FORCE     FIELD)
 LARGEST RESIDUAL MOMENT            -98.3       AT NODE   10000000   DOF  4
 LARGEST INCREMENT OF ROTATION      1.404E-03   AT NODE        307   DOF  4
 LARGEST CORRECTION TO ROTATION    -1.282E-05   AT NODE        307   DOF  4
          THE MOMENT    IS ZERO EVERYWHERE BUT THE MOMENT    RESIDUAL OR
          THE ROTATION CORRECTION IS NON-ZERO

  NUMBER OF EQUATIONS =      1407     NUMBER OF RHS =    1
  NUMBER OF FLOATING PT. OPERATIONS =  9.92E+06

  USING THE DIRECT SOLVER WITH  42 PROCESSORS

     CHECK POINT   START OF SOLVER    

     CHECK POINT  END OF SOLVER       

       ELAPSED USER TIME (SEC)      =  0.24000    
       ELAPSED SYSTEM TIME (SEC)    =  0.10000    
       ELAPSED TOTAL CPU TIME (SEC) =  0.34000    
       ELAPSED WALLCLOCK TIME (SEC) =          0

               CONVERGENCE CHECKS FOR EQUILIBRIUM ITERATION     3


 AVERAGE FORCE                       63.9       TIME AVG. FORCE        36.6    
 LARGEST RESIDUAL FORCE             1.839E-02   AT NODE   10000000   DOF  2
 LARGEST INCREMENT OF DISP.         4.747E-02   AT NODE       1035   DOF  3
 LARGEST CORRECTION TO DISP.        2.953E-05   AT NODE        315   DOF  3
          THE FORCE     EQUILIBRIUM EQUATIONS HAVE CONVERGED

 AVERAGE MOMENT                      0.00       TIME AVG. MOMENT       41.1    
                                                (FROM FORCE     FIELD)
 LARGEST RESIDUAL MOMENT            -17.3       AT NODE   10000000   DOF  4
 LARGEST INCREMENT OF ROTATION      1.402E-03   AT NODE        307   DOF  4
 LARGEST CORRECTION TO ROTATION    -2.258E-06   AT NODE        307   DOF  4
          THE MOMENT    IS ZERO EVERYWHERE BUT THE MOMENT    RESIDUAL OR
          THE ROTATION CORRECTION IS NON-ZERO

  NUMBER OF EQUATIONS =      1407     NUMBER OF RHS =    1
  NUMBER OF FLOATING PT. OPERATIONS =  9.92E+06

  USING THE DIRECT SOLVER WITH  42 PROCESSORS

     CHECK POINT   START OF SOLVER    

     CHECK POINT  END OF SOLVER       

       ELAPSED USER TIME (SEC)      =  0.26000    
       ELAPSED SYSTEM TIME (SEC)    =  9.00000E-02
       ELAPSED TOTAL CPU TIME (SEC) =  0.35000    
       ELAPSED WALLCLOCK TIME (SEC) =          0

               CONVERGENCE CHECKS FOR EQUILIBRIUM ITERATION     4


 AVERAGE FORCE                       63.9       TIME AVG. FORCE        36.6    
 LARGEST RESIDUAL FORCE             3.099E-03   AT NODE   10000000   DOF  2
 LARGEST INCREMENT OF DISP.         4.747E-02   AT NODE       1035   DOF  3
 LARGEST CORRECTION TO DISP.        5.233E-06   AT NODE        315   DOF  3
          THE FORCE     EQUILIBRIUM EQUATIONS HAVE CONVERGED

 AVERAGE MOMENT                      0.00       TIME AVG. MOMENT       41.1    
[...]

     CHECK POINT  END OF SOLVER       

       ELAPSED USER TIME (SEC)      =  0.26000    
       ELAPSED SYSTEM TIME (SEC)    =  6.00000E-02
       ELAPSED TOTAL CPU TIME (SEC) =  0.32000    
       ELAPSED WALLCLOCK TIME (SEC) =          0

               CONVERGENCE CHECKS FOR EQUILIBRIUM ITERATION     9


 AVERAGE FORCE                       110.       TIME AVG. FORCE        103.    
 LARGEST RESIDUAL FORCE             3.995E-04   AT NODE   10000000   DOF  2
 LARGEST INCREMENT OF DISP.         1.136E-03   AT NODE        746   DOF  2
 LARGEST CORRECTION TO DISP.        8.642E-07   AT NODE        746   DOF  2
          THE FORCE     EQUILIBRIUM EQUATIONS HAVE CONVERGED

 AVERAGE MOMENT                      0.00       TIME AVG. MOMENT       128.    
                                                (FROM FORCE     FIELD)
 LARGEST RESIDUAL MOMENT             1.82       AT NODE   10000000   DOF  5
 LARGEST INCREMENT OF ROTATION     -2.908E-05   AT NODE        307   DOF  6
 LARGEST CORRECTION TO ROTATION    -2.091E-08   AT NODE        307   DOF  6
          ALL ROTATION CORRECTIONS ARE ZERO
          THE MOMENT    IS ZERO EVERYWHERE BUT THE MOMENT    RESIDUAL OR
          THE ROTATION CORRECTION IS NON-ZERO

  NUMBER OF EQUATIONS =      1407     NUMBER OF RHS =    1
  NUMBER OF FLOATING PT. OPERATIONS =  9.92E+06

  USING THE DIRECT SOLVER WITH  42 PROCESSORS

     CHECK POINT   START OF SOLVER    

     CHECK POINT  END OF SOLVER       

       ELAPSED USER TIME (SEC)      =  0.23000    
       ELAPSED SYSTEM TIME (SEC)    =  0.11000    
       ELAPSED TOTAL CPU TIME (SEC) =  0.34000    
       ELAPSED WALLCLOCK TIME (SEC) =          0

               CONVERGENCE CHECKS FOR EQUILIBRIUM ITERATION    10


 AVERAGE FORCE                       110.       TIME AVG. FORCE        103.    
 LARGEST RESIDUAL FORCE             2.664E-04   AT NODE   10000000   DOF  2
 LARGEST INCREMENT OF DISP.         1.137E-03   AT NODE        746   DOF  2
 LARGEST CORRECTION TO DISP.        5.764E-07   AT NODE        746   DOF  2
          THE FORCE     EQUILIBRIUM EQUATIONS HAVE CONVERGED BASED ON ALTERNATIVE
          RESIDUAL CRITERION

 AVERAGE MOMENT                      0.00       TIME AVG. MOMENT       128.    
                                                (FROM FORCE     FIELD)
 LARGEST RESIDUAL MOMENT             1.21       AT NODE   10000000   DOF  5
 LARGEST INCREMENT OF ROTATION     -2.909E-05   AT NODE        307   DOF  6
 LARGEST CORRECTION TO ROTATION    -1.395E-08   AT NODE        307   DOF  6
          ALL ROTATION CORRECTIONS ARE ZERO
          THE MOMENT    IS ZERO EVERYWHERE BUT THE MOMENT    RESIDUAL OR
          THE ROTATION CORRECTION IS NON-ZERO

  NUMBER OF EQUATIONS =      1407     NUMBER OF RHS =    1
  NUMBER OF FLOATING PT. OPERATIONS =  9.92E+06

  USING THE DIRECT SOLVER WITH  42 PROCESSORS

     CHECK POINT   START OF SOLVER    

     CHECK POINT  END OF SOLVER       

       ELAPSED USER TIME (SEC)      =  0.25000    
       ELAPSED SYSTEM TIME (SEC)    =  8.00000E-02
       ELAPSED TOTAL CPU TIME (SEC) =  0.33000    
       ELAPSED WALLCLOCK TIME (SEC) =          0

               CONVERGENCE CHECKS FOR EQUILIBRIUM ITERATION    11


 AVERAGE FORCE                       110.       TIME AVG. FORCE        103.    
 LARGEST RESIDUAL FORCE             1.777E-04   AT NODE   10000000   DOF  2
 LARGEST INCREMENT OF DISP.         1.137E-03   AT NODE        746   DOF  2
 LARGEST CORRECTION TO DISP.        3.844E-07   AT NODE        746   DOF  2
          THE FORCE     EQUILIBRIUM EQUATIONS HAVE CONVERGED BASED ON ALTERNATIVE
          RESIDUAL CRITERION

 AVERAGE MOMENT                      0.00       TIME AVG. MOMENT       128.    
                                                (FROM FORCE     FIELD)
 LARGEST RESIDUAL MOMENT            0.810       AT NODE   10000000   DOF  5
 LARGEST INCREMENT OF ROTATION     -2.910E-05   AT NODE        307   DOF  6
 LARGEST CORRECTION TO ROTATION    -9.301E-09   AT NODE        307   DOF  6
          ALL ROTATION CORRECTIONS ARE ZERO
          THE MOMENT    IS ZERO EVERYWHERE BUT THE MOMENT    RESIDUAL OR
          THE ROTATION CORRECTION IS NON-ZERO

  NUMBER OF EQUATIONS =      1407     NUMBER OF RHS =    1
  NUMBER OF FLOATING PT. OPERATIONS =  9.92E+06

  USING THE DIRECT SOLVER WITH  42 PROCESSORS

     CHECK POINT   START OF SOLVER    

     CHECK POINT  END OF SOLVER       

       ELAPSED USER TIME (SEC)      =  0.26000    
       ELAPSED SYSTEM TIME (SEC)    =  8.00000E-02
       ELAPSED TOTAL CPU TIME (SEC) =  0.34000    
       ELAPSED WALLCLOCK TIME (SEC) =          0

               CONVERGENCE CHECKS FOR EQUILIBRIUM ITERATION    12


 AVERAGE FORCE                       110.       TIME AVG. FORCE        103.    
 LARGEST RESIDUAL FORCE             1.185E-04   AT NODE   10000000   DOF  2
 LARGEST INCREMENT OF DISP.         1.137E-03   AT NODE        746   DOF  2
 LARGEST CORRECTION TO DISP.        2.564E-07   AT NODE        746   DOF  2
          THE FORCE     EQUILIBRIUM EQUATIONS HAVE CONVERGED BASED ON ALTERNATIVE
          RESIDUAL CRITERION

 AVERAGE MOMENT                      0.00       TIME AVG. MOMENT       128.    
                                                (FROM FORCE     FIELD)
 LARGEST RESIDUAL MOMENT            0.540       AT NODE   10000000   DOF  5
 LARGEST INCREMENT OF ROTATION     -2.911E-05   AT NODE        307   DOF  6
 LARGEST CORRECTION TO ROTATION    -6.203E-09   AT NODE        307   DOF  6
          ALL ROTATION CORRECTIONS ARE ZERO

          BECAUSE TOO MANY EQUILIBRIUM ITERATIONS HAVE BEEN USED
          THE NEXT TIME INCREMENT WILL BE REDUCED TO    5.000E-05

 ITERATION SUMMARY FOR THE INCREMENT:  12 TOTAL ITERATIONS, OF WHICH
   0 ARE SEVERE DISCONTINUITY ITERATIONS AND 12 ARE EQUILIBRIUM ITERATIONS.

 TIME INCREMENT COMPLETED  5.000E-05,  FRACTION OF STEP COMPLETED  0.929    
 STEP TIME COMPLETED       0.929    ,  TOTAL TIME COMPLETED        0.929    


  INCREMENT    84 STARTS. ATTEMPT NUMBER  1, TIME INCREMENT  5.000E-05

  NUMBER OF EQUATIONS =      1407     NUMBER OF RHS =    1
  NUMBER OF FLOATING PT. OPERATIONS =  9.92E+06

  USING THE DIRECT SOLVER WITH  42 PROCESSORS

     CHECK POINT   START OF SOLVER    

     CHECK POINT  END OF SOLVER       

       ELAPSED USER TIME (SEC)      =  0.29000    
       ELAPSED SYSTEM TIME (SEC)    =  5.00000E-02
       ELAPSED TOTAL CPU TIME (SEC) =  0.34000    
       ELAPSED WALLCLOCK TIME (SEC) =          0

               CONVERGENCE CHECKS FOR EQUILIBRIUM ITERATION     1


 AVERAGE FORCE                       110.       TIME AVG. FORCE        103.    
 LARGEST RESIDUAL FORCE             1.960E-02   AT NODE   10000000   DOF  2
 LARGEST INCREMENT OF DISP.         1.288E-03   AT NODE        746   DOF  2
 LARGEST CORRECTION TO DISP.        1.504E-04   AT NODE        746   DOF  2
 ESTIMATE OF DISP.    CORRECTION    9.059E-06
 FORCE     EQUILIB. ACCEPTED BASED ON SMALL RESIDUAL AND ESTIMATED CORRECTION

 AVERAGE MOMENT                      0.00       TIME AVG. MOMENT       128.    
                                                (FROM FORCE     FIELD)
 LARGEST RESIDUAL MOMENT             183.       AT NODE   10000000   DOF  5
 LARGEST INCREMENT OF ROTATION     -3.296E-05   AT NODE        307   DOF  6
 LARGEST CORRECTION TO ROTATION    -3.858E-06   AT NODE        307   DOF  6
          THE MOMENT    IS ZERO EVERYWHERE BUT THE MOMENT    RESIDUAL OR
          THE ROTATION CORRECTION IS NON-ZERO

  NUMBER OF EQUATIONS =      1407     NUMBER OF RHS =    1
  NUMBER OF FLOATING PT. OPERATIONS =  9.92E+06

  USING THE DIRECT SOLVER WITH  42 PROCESSORS

     CHECK POINT   START OF SOLVER    

     CHECK POINT  END OF SOLVER       

       ELAPSED USER TIME (SEC)      =  0.25000    
       ELAPSED SYSTEM TIME (SEC)    =  0.10000    
       ELAPSED TOTAL CPU TIME (SEC) =  0.35000    
       ELAPSED WALLCLOCK TIME (SEC) =          0

               CONVERGENCE CHECKS FOR EQUILIBRIUM ITERATION     2


 AVERAGE FORCE                       110.       TIME AVG. FORCE        103.    
 LARGEST RESIDUAL FORCE             2.670E-02   AT NODE   10000000   DOF  2
 LARGEST INCREMENT OF DISP.         1.348E-03   AT NODE        746   DOF  2
 LARGEST CORRECTION TO DISP.        5.993E-05   AT NODE        746   DOF  2
          DISP.    CORRECTION TOO LARGE COMPARED TO DISP.    INCREMENT

 AVERAGE MOMENT                      0.00       TIME AVG. MOMENT       128.    
                                                (FROM FORCE     FIELD)
 LARGEST RESIDUAL MOMENT             126.       AT NODE   10000000   DOF  5
 LARGEST INCREMENT OF ROTATION     -3.441E-05   AT NODE        307   DOF  6
 LARGEST CORRECTION TO ROTATION    -1.447E-06   AT NODE        307   DOF  6
          THE MOMENT    IS ZERO EVERYWHERE BUT THE MOMENT    RESIDUAL OR
          THE ROTATION CORRECTION IS NON-ZERO

  NUMBER OF EQUATIONS =      1407     NUMBER OF RHS =    1
  NUMBER OF FLOATING PT. OPERATIONS =  9.92E+06

  USING THE DIRECT SOLVER WITH  42 PROCESSORS

     CHECK POINT   START OF SOLVER    

     CHECK POINT  END OF SOLVER       

       ELAPSED USER TIME (SEC)      =  0.26000    
       ELAPSED SYSTEM TIME (SEC)    =  8.00000E-02
       ELAPSED TOTAL CPU TIME (SEC) =  0.34000    
       ELAPSED WALLCLOCK TIME (SEC) =          0

               CONVERGENCE CHECKS FOR EQUILIBRIUM ITERATION     3


 AVERAGE FORCE                       110.       TIME AVG. FORCE        103.    
 LARGEST RESIDUAL FORCE             2.708E-02   AT NODE   10000000   DOF  2
 LARGEST INCREMENT OF DISP.         1.395E-03   AT NODE        746   DOF  2
 LARGEST CORRECTION TO DISP.        4.733E-05   AT NODE        746   DOF  2
          DISP.    CORRECTION TOO LARGE COMPARED TO DISP.    INCREMENT

 AVERAGE MOMENT                      0.00       TIME AVG. MOMENT       128.    
                                                (FROM FORCE     FIELD)
 LARGEST RESIDUAL MOMENT             95.1       AT NODE   10000000   DOF  5
 LARGEST INCREMENT OF ROTATION     -3.557E-05   AT NODE        307   DOF  6
 LARGEST CORRECTION TO ROTATION    -1.156E-06   AT NODE        307   DOF  6
          THE MOMENT    IS ZERO EVERYWHERE BUT THE MOMENT    RESIDUAL OR
          THE ROTATION CORRECTION IS NON-ZERO

  NUMBER OF EQUATIONS =      1407     NUMBER OF RHS =    1
  NUMBER OF FLOATING PT. OPERATIONS =  9.92E+06

  USING THE DIRECT SOLVER WITH  42 PROCESSORS

     CHECK POINT   START OF SOLVER    

     CHECK POINT  END OF SOLVER       

       ELAPSED USER TIME (SEC)      =  0.22000    
       ELAPSED SYSTEM TIME (SEC)    =  0.12000    
       ELAPSED TOTAL CPU TIME (SEC) =  0.34000    
       ELAPSED WALLCLOCK TIME (SEC) =          0

               CONVERGENCE CHECKS FOR EQUILIBRIUM ITERATION     4


 AVERAGE FORCE                       110.       TIME AVG. FORCE        103.    
 LARGEST RESIDUAL FORCE             1.732E-02   AT NODE   10000000   DOF  2
 LARGEST INCREMENT OF DISP.         1.447E-03   AT NODE        746   DOF  2
 LARGEST CORRECTION TO DISP.        5.227E-05   AT NODE        746   DOF  2
          DISP.    CORRECTION TOO LARGE COMPARED TO DISP.    INCREMENT

 AVERAGE MOMENT                      0.00       TIME AVG. MOMENT       128.    
                                                (FROM FORCE     FIELD)
 LARGEST RESIDUAL MOMENT             89.9       AT NODE   10000000   DOF  5
 LARGEST INCREMENT OF ROTATION     -3.687E-05   AT NODE        307   DOF  6
 LARGEST CORRECTION TO ROTATION    -1.309E-06   AT NODE        307   DOF  6
          THE MOMENT    IS ZERO EVERYWHERE BUT THE MOMENT    RESIDUAL OR
          THE ROTATION CORRECTION IS NON-ZERO

  NUMBER OF EQUATIONS =      1407     NUMBER OF RHS =    1
  NUMBER OF FLOATING PT. OPERATIONS =  9.92E+06

  USING THE DIRECT SOLVER WITH  42 PROCESSORS

     CHECK POINT   START OF SOLVER    

     CHECK POINT  END OF SOLVER       

       ELAPSED USER TIME (SEC)      =  0.27000    
       ELAPSED SYSTEM TIME (SEC)    =  7.00000E-02
       ELAPSED TOTAL CPU TIME (SEC) =  0.34000    
       ELAPSED WALLCLOCK TIME (SEC) =          0

               CONVERGENCE CHECKS FOR EQUILIBRIUM ITERATION     5


 AVERAGE FORCE                       110.       TIME AVG. FORCE        103.    
 LARGEST RESIDUAL FORCE             1.515E-02   AT NODE   10000000   DOF  2
 LARGEST INCREMENT OF DISP.         1.490E-03   AT NODE        746   DOF  2
 LARGEST CORRECTION TO DISP.        4.322E-05   AT NODE        746   DOF  2
          DISP.    CORRECTION TOO LARGE COMPARED TO DISP.    INCREMENT

 AVERAGE MOMENT                      0.00       TIME AVG. MOMENT       128.    
                                                (FROM FORCE     FIELD)
 LARGEST RESIDUAL MOMENT             78.1       AT NODE   10000000   DOF  5
 LARGEST INCREMENT OF ROTATION     -3.795E-05   AT NODE        307   DOF  6
 LARGEST CORRECTION TO ROTATION    -1.072E-06   AT NODE        307   DOF  6
          THE MOMENT    IS ZERO EVERYWHERE BUT THE MOMENT    RESIDUAL OR
          THE ROTATION CORRECTION IS NON-ZERO

  NUMBER OF EQUATIONS =      1407     NUMBER OF RHS =    1
  NUMBER OF FLOATING PT. OPERATIONS =  9.92E+06

  USING THE DIRECT SOLVER WITH  42 PROCESSORS

     CHECK POINT   START OF SOLVER    

     CHECK POINT  END OF SOLVER       

       ELAPSED USER TIME (SEC)      =  0.30000    
       ELAPSED SYSTEM TIME (SEC)    =  5.00000E-02
       ELAPSED TOTAL CPU TIME (SEC) =  0.35000    
       ELAPSED WALLCLOCK TIME (SEC) =          0

               CONVERGENCE CHECKS FOR EQUILIBRIUM ITERATION     6


 AVERAGE FORCE                       110.       TIME AVG. FORCE        103.    
 LARGEST RESIDUAL FORCE             1.313E-02   AT NODE   10000000   DOF  2
 LARGEST INCREMENT OF DISP.         1.528E-03   AT NODE        746   DOF  2
 LARGEST CORRECTION TO DISP.        3.756E-05   AT NODE        746   DOF  2
          DISP.    CORRECTION TOO LARGE COMPARED TO DISP.    INCREMENT

 AVERAGE MOMENT                      0.00       TIME AVG. MOMENT       128.    
                                                (FROM FORCE     FIELD)
 LARGEST RESIDUAL MOMENT             67.8       AT NODE   10000000   DOF  5
 LARGEST INCREMENT OF ROTATION     -3.888E-05   AT NODE        307   DOF  6
 LARGEST CORRECTION TO ROTATION    -9.319E-07   AT NODE        307   DOF  6
          THE MOMENT    IS ZERO EVERYWHERE BUT THE MOMENT    RESIDUAL OR
          THE ROTATION CORRECTION IS NON-ZERO

  NUMBER OF EQUATIONS =      1407     NUMBER OF RHS =    1
  NUMBER OF FLOATING PT. OPERATIONS =  9.92E+06

  USING THE DIRECT SOLVER WITH  42 PROCESSORS

     CHECK POINT   START OF SOLVER    

     CHECK POINT  END OF SOLVER       

       ELAPSED USER TIME (SEC)      =  0.24000    
       ELAPSED SYSTEM TIME (SEC)    =  7.00000E-02
       ELAPSED TOTAL CPU TIME (SEC) =  0.31000    
       ELAPSED WALLCLOCK TIME (SEC) =          0

               CONVERGENCE CHECKS FOR EQUILIBRIUM ITERATION     7


 AVERAGE FORCE                       110.       TIME AVG. FORCE        103.    
 LARGEST RESIDUAL FORCE             1.136E-02   AT NODE   10000000   DOF  2
 LARGEST INCREMENT OF DISP.         1.561E-03   AT NODE        746   DOF  2
 LARGEST CORRECTION TO DISP.        3.259E-05   AT NODE        746   DOF  2
          DISP.    CORRECTION TOO LARGE COMPARED TO DISP.    INCREMENT

 AVERAGE MOMENT                      0.00       TIME AVG. MOMENT       128.    
                                                (FROM FORCE     FIELD)
 LARGEST RESIDUAL MOMENT             58.9       AT NODE   10000000   DOF  5
 LARGEST INCREMENT OF ROTATION     -3.969E-05   AT NODE        307   DOF  6
 LARGEST CORRECTION TO ROTATION    -8.084E-07   AT NODE        307   DOF  6
          THE MOMENT    IS ZERO EVERYWHERE BUT THE MOMENT    RESIDUAL OR
          THE ROTATION CORRECTION IS NON-ZERO

  NUMBER OF EQUATIONS =      1407     NUMBER OF RHS =    1
  NUMBER OF FLOATING PT. OPERATIONS =  9.92E+06

  USING THE DIRECT SOLVER WITH  42 PROCESSORS

     CHECK POINT   START OF SOLVER    

     CHECK POINT  END OF SOLVER       

       ELAPSED USER TIME (SEC)      =  0.27000    
       ELAPSED SYSTEM TIME (SEC)    =  5.00000E-02
       ELAPSED TOTAL CPU TIME (SEC) =  0.32000    
       ELAPSED WALLCLOCK TIME (SEC) =          1

               CONVERGENCE CHECKS FOR EQUILIBRIUM ITERATION     8


 AVERAGE FORCE                       110.       TIME AVG. FORCE        103.    
 LARGEST RESIDUAL FORCE             9.826E-03   AT NODE   10000000   DOF  2
 LARGEST INCREMENT OF DISP.         1.589E-03   AT NODE        746   DOF  2
 LARGEST CORRECTION TO DISP.        2.825E-05   AT NODE        746   DOF  2
          DISP.    CORRECTION TOO LARGE COMPARED TO DISP.    INCREMENT

 AVERAGE MOMENT                      0.00       TIME AVG. MOMENT       128.    
                                                (FROM FORCE     FIELD)
 LARGEST RESIDUAL MOMENT             51.0       AT NODE   10000000   DOF  5
 LARGEST INCREMENT OF ROTATION     -4.039E-05   AT NODE        307   DOF  6
 LARGEST CORRECTION TO ROTATION    -7.008E-07   AT NODE        307   DOF  6
          THE MOMENT    IS ZERO EVERYWHERE BUT THE MOMENT    RESIDUAL OR
          THE ROTATION CORRECTION IS NON-ZERO

  NUMBER OF EQUATIONS =      1407     NUMBER OF RHS =    1
  NUMBER OF FLOATING PT. OPERATIONS =  9.92E+06

  USING THE DIRECT SOLVER WITH  42 PROCESSORS

     CHECK POINT   START OF SOLVER    

     CHECK POINT  END OF SOLVER       

       ELAPSED USER TIME (SEC)      =  0.24000    
       ELAPSED SYSTEM TIME (SEC)    =  9.00000E-02
       ELAPSED TOTAL CPU TIME (SEC) =  0.33000    
       ELAPSED WALLCLOCK TIME (SEC) =          0

               CONVERGENCE CHECKS FOR EQUILIBRIUM ITERATION     9


 AVERAGE FORCE                       110.       TIME AVG. FORCE        103.    
 LARGEST RESIDUAL FORCE             8.497E-03   AT NODE   10000000   DOF  2
 LARGEST INCREMENT OF DISP.         1.613E-03   AT NODE        746   DOF  2
 LARGEST CORRECTION TO DISP.        2.448E-05   AT NODE        746   DOF  2
          DISP.    CORRECTION TOO LARGE COMPARED TO DISP.    INCREMENT

 AVERAGE MOMENT                      0.00       TIME AVG. MOMENT       128.    
                                                (FROM FORCE     FIELD)
 LARGEST RESIDUAL MOMENT             44.2       AT NODE   10000000   DOF  5
 LARGEST INCREMENT OF ROTATION     -4.100E-05   AT NODE        307   DOF  6
 LARGEST CORRECTION TO ROTATION    -6.072E-07   AT NODE        307   DOF  6
          THE MOMENT    IS ZERO EVERYWHERE BUT THE MOMENT    RESIDUAL OR
          THE ROTATION CORRECTION IS NON-ZERO
 

 ***NOTE: THE RATE OF CONVERGENCE IS VERY SLOW. CONVERGENCE IS JUDGED UNLIKELY.
 

 ***ERROR: TIME INCREMENT REQUIRED IS LESS THAN THE MINIMUM SPECIFIED

 ***ERROR: THE ANALYSIS HAS BEEN TERMINATED DUE TO PREVIOUS ERRORS. ALL OUTPUT 
           REQUESTS HAVE BEEN WRITTEN FOR THE LAST CONVERGED INCREMENT.



     ANALYSIS SUMMARY:
     TOTAL OF         84  INCREMENTS
                       4  CUTBACKS IN AUTOMATIC INCREMENTATION
                     788  ITERATIONS INCLUDING CONTACT ITERATIONS IF PRESENT
                     788  PASSES THROUGH THE EQUATION SOLVER OF WHICH 
                     788  INVOLVE MATRIX DECOMPOSITION, INCLUDING
                       0  DECOMPOSITION(S) OF THE MASS MATRIX
                       1  REORDERING OF EQUATIONS TO MINIMIZE WAVEFRONT
                       0  ADDITIONAL RESIDUAL EVALUATIONS FOR LINE SEARCHES
                       0  ADDITIONAL OPERATOR EVALUATIONS FOR LINE SEARCHES
                     421  WARNING MESSAGES DURING USER INPUT PROCESSING
                       0  WARNING MESSAGES DURING ANALYSIS
                       0  ANALYSIS WARNINGS ARE NUMERICAL PROBLEM MESSAGES
                       0  ANALYSIS WARNINGS ARE NEGATIVE EIGENVALUE MESSAGES
                       2  ERROR MESSAGES



     JOB TIME SUMMARY
       USER TIME (SEC)      =   686.42    
       SYSTEM TIME (SEC)    =   215.63    
       TOTAL CPU TIME (SEC) =   902.05    
       WALLCLOCK TIME (SEC) =         61
