 Abaqus/Standard 2021                  DATE 19-Feb-2023 TIME 14:51:58
 SUMMARY OF JOB INFORMATION:
 STEP  INC ATT SEVERE EQUIL TOTAL  TOTAL      STEP       INC OF       DOF    IF
               DISCON ITERS ITERS  TIME/    TIME/LPF    TIME/LPF    MONITOR RIKS
               ITERS               FREQ
   1     1   1     0     5     5  0.0500     0.0500     0.05000   
   1     2   1     0     5     5  0.100      0.100      0.05000   
   1     3   1     0     5     5  0.150      0.150      0.05000   
   1     4   1     0     5     5  0.200      0.200      0.05000   
   1     5   1     0     6     6  0.250      0.250      0.05000   
   1     6   1     0     6     6  0.300      0.300      0.05000   
   1     7   1     0     7     7  0.350      0.350      0.05000   
   1     8   1     0     7     7  0.400      0.400      0.05000   
   1     9   1     0     6     6  0.450      0.450      0.05000   
   1    10   1     0     6     6  0.500      0.500      0.05000   
   1    11   1     0     7     7  0.550      0.550      0.05000   
   1    12   1     0     8     8  0.600      0.600      0.05000   
   1    13   1     0     8     8  0.650      0.650      0.05000   
   1    14   1     0     9     9  0.700      0.700      0.05000   
   1    15   1U    0     9     9  0.700      0.700      0.05000   
   1    15   2     0     7     7  0.725      0.725      0.02500   
   1    16   1     0     7     7  0.750      0.750      0.02500   
   1    17   1U    0    16    16  0.750      0.750      0.02500   
   1    17   2     0     7     7  0.756      0.756      0.006250  
   1    18   1     0     6     6  0.763      0.763      0.006250  
   1    19   1     0     7     7  0.769      0.769      0.006250  
   1    20   1     0     7     7  0.775      0.775      0.006250  
   1    21   1     0     7     7  0.781      0.781      0.006250  
   1    22   1     0     8     8  0.787      0.787      0.006250  
   1    23   1     0     8     8  0.794      0.794      0.006250  
   1    24   1     0     9     9  0.800      0.800      0.006250  
   1    25   1     0     8     8  0.806      0.806      0.006250  
   1    26   1     0    12    12  0.812      0.812      0.006250  
   1    27   1     0    10    10  0.817      0.817      0.004688  
   1    28   1     0    10    10  0.822      0.822      0.004688  
   1    29   1     0    10    10  0.827      0.827      0.004688  
   1    30   1     0     9     9  0.831      0.831      0.004688  
   1    31   1     0    11    11  0.836      0.836      0.004688  
   1    32   1     0     9     9  0.839      0.839      0.003516  
   1    33   1     0     9     9  0.843      0.843      0.003516  
   1    34   1     0    10    10  0.846      0.846      0.003516  
   1    35   1     0     9     9  0.850      0.850      0.003516  
   1    36   1     0     6     6  0.854      0.854      0.003516  
   1    37   1     0     7     7  0.857      0.857      0.003516  
   1    38   1     0     8     8  0.861      0.861      0.003516  
   1    39   1     0     9     9  0.864      0.864      0.003516  
   1    40   1     0     9     9  0.868      0.868      0.003516  
   1    41   1     0     9     9  0.871      0.871      0.003516  
   1    42   1     0     8     8  0.875      0.875      0.003516  
   1    43   1     0     9     9  0.878      0.878      0.003516  
   1    44   1     0     8     8  0.882      0.882      0.003516  
   1    45   1     0     9     9  0.885      0.885      0.003516  
   1    46   1     0    10    10  0.889      0.889      0.003516  
   1    47   1     0     9     9  0.892      0.892      0.003516  
   1    48   1     0    10    10  0.896      0.896      0.003516  
   1    49   1     0    10    10  0.899      0.899      0.003516  
   1    50   1     0     6     6  0.903      0.903      0.003516  
   1    51   1     0    11    11  0.906      0.906      0.003516  
   1    52   1     0    11    11  0.909      0.909      0.002637  
   1    53   1     0    12    12  0.911      0.911      0.001978  
   1    54   1     0    13    13  0.912      0.912      0.001483  
   1    55   1     0    11    11  0.913      0.913      0.001112  
   1    56   1     0     9     9  0.914      0.914      0.0008343 
   1    57   1     0    10    10  0.915      0.915      0.0008343 
   1    58   1     0    10    10  0.916      0.916      0.0008343 
   1    59   1     0    12    12  0.917      0.917      0.0008343 
   1    60   1     0    10    10  0.917      0.917      0.0006257 
   1    61   1     0     9     9  0.918      0.918      0.0006257 
   1    62   1     0     8     8  0.919      0.919      0.0006257 
   1    63   1     0    10    10  0.919      0.919      0.0006257 
   1    64   1     0     6     6  0.920      0.920      0.0006257 
   1    65   1     0     9     9  0.921      0.921      0.0006257 
   1    66   1     0     9     9  0.921      0.921      0.0006257 
   1    67   1     0     9     9  0.922      0.922      0.0006257 
   1    68   1     0     9     9  0.922      0.922      0.0006257 
   1    69   1     0    10    10  0.923      0.923      0.0006257 
   1    70   1     0     9     9  0.924      0.924      0.0006257 
   1    71   1     0     8     8  0.924      0.924      0.0006257 
   1    72   1     0     6     6  0.925      0.925      0.0006257 
   1    73   1     0     9     9  0.926      0.926      0.0006257 
   1    74   1     0    10    10  0.926      0.926      0.0006257 
   1    75   1     0    10    10  0.927      0.927      0.0006257 
   1    76   1     0    15    15  0.927      0.927      0.0006257 
   1    77   1     0    14    14  0.928      0.928      0.0004693 
   1    78   1     0    14    14  0.928      0.928      0.0003520 
   1    79   1U    0    16    16  0.928      0.928      0.0002640 
   1    79   2     0    14    14  0.928      0.928      6.599e-05 
   1    80   1     0    11    11  0.928      0.928      5.000e-05 
   1    81   1     0     9     9  0.928      0.928      5.000e-05 
   1    82   1     0    12    12  0.928      0.928      5.000e-05 
   1    83   1     0    12    12  0.929      0.929      5.000e-05 
   1    84   1U    0     9     9  0.929      0.929      5.000e-05 
                          
 THE ANALYSIS HAS NOT BEEN COMPLETED
