 Abaqus/Standard 2021.HF4                  DATE 24-Feb-2023 TIME 15:39:22
 SUMMARY OF JOB INFORMATION:
 STEP  INC ATT SEVERE EQUIL TOTAL  TOTAL      STEP       INC OF       DOF    IF
               DISCON ITERS ITERS  TIME/    TIME/LPF    TIME/LPF    MONITOR RIKS
               ITERS               FREQ
   1     1   1     0     1     1  0.0500     0.0500     0.05000   
   1     2   1     0     1     1  0.100      0.100      0.05000   
   1     3   1     0     1     1  0.150      0.150      0.05000   
   1     4   1     0     1     1  0.200      0.200      0.05000   
   1     5   1     0     1     1  0.250      0.250      0.05000   
   1     6   1     0     1     1  0.300      0.300      0.05000   
   1     7   1     0     1     1  0.350      0.350      0.05000   
   1     8   1     0     1     1  0.400      0.400      0.05000   
   1     9   1     0     1     1  0.450      0.450      0.05000   
   1    10   1     0     1     1  0.500      0.500      0.05000   
   1    11   1     0     1     1  0.550      0.550      0.05000   
   1    12   1U    0     1     1  0.550      0.550      0.05000   
   1    12   2     0     1     1  0.562      0.562      0.01250   
   1    13   1U    0     1     1  0.562      0.562      0.01875   
   1    13   2     0     1     1  0.567      0.567      0.004688  
   1    14   1U    0     1     1  0.567      0.567      0.007031  
   1    14   2     0     1     1  0.569      0.569      0.001758  
   1    15   1U    0     1     1  0.569      0.569      0.002637  
   1    15   2     0     1     1  0.570      0.570      0.0006592 
   1    16   1U    0     1     1  0.570      0.570      0.0009888 
   1    16   2U    0     1     1  0.570      0.570      0.0002472 
   1    16   3     0     1     1  0.570      0.570      6.180e-05 
   1    17   1U    0     1     1  0.570      0.570      9.270e-05 
   1    17   2     0     1     1  0.570      0.570      5.000e-05 
   1    18   1U    0     1     1  0.570      0.570      7.500e-05 
   1    18   2U    0     0     0  0.570      0.570      5.000e-05 
                          
 THE ANALYSIS HAS NOT BEEN COMPLETED
