1

   Abaqus 2021                                  Date 04-Mar-2023   Time 12:38:35
   For use by UNIVERSITAET BERN under license from Dassault Systemes or its subsidiary.



                         The Abaqus Software is a product of:

                           Dassault Systemes SIMULIA Corp.
                           1301 Atwood Avenue, Suite 101W
                              Johnston, RI 02919, USA
 


                   The Abaqus Software is available only under license
                   from Dassault Systemes or its subsidiary and may be
                   used or reproduced only in accordance with the terms
                   of such license.
 
                          On machine artorg-cortex.campus.unibe.ch 
                          you are authorized to run
                          Abaqus/Standard until 31-Jan-2024

                          Your site id is: 200000000031934 


 
                    For assistance or any other information you may
                    obtain contact information for your local office
                    from the world wide web at:

                      http://www.3ds.com/products/simulia/locations/

 
                * * * * * * * * * * * * * * * * * * * * * * * * * * * * * * 
                *                                                         * 
                *                   *****************                     * 
                *                   *  N O T I C E  *                     * 
                *                   *****************                     * 
                *                                                         * 
                *                                                         * 
                *                       Abaqus 2021                       * 
                *                                                         * 
                *          BUILD ID: 2020_03_06-15.50.37 167380           * 
                *                                                         * 
                *                                                         * 
                *  Please make sure you are using                         * 
                *  release Abaqus 2021 manuals                            * 
                *  plus the notes accompanying this release.              * 
                *                                                         * 
                *                                                         * 
                *                                                         * 
                *                                                         * 
                *                                                         * 
                *   This program may not be used for commercial purposes  * 
                *           without payment of a commercial fee.          * 
                *                                                         * 
                * * * * * * * * * * * * * * * * * * * * * * * * * * * * * * 


 



     PROCESSING PART, INSTANCE, AND ASSEMBLY INFORMATION
   *******************************************************


     END PROCESSING PART, INSTANCE, AND ASSEMBLY INFORMATION
   ***********************************************************




     OPTIONS BEING PROCESSED
   ***************************


  *NODE
  *ELEMENT, TYPE=C3D8, ELSET=BONE
  *ELEMENT, TYPE=C3D8, ELSET=Elset196

 ***WARNING: ELEMENT LABEL 196 HAS BEEN USED MORE THAN ONCE. ONLY THE LAST 
             DEFINITION IS CONSIDERED.
  *ELEMENT, TYPE=C3D8, ELSET=Elset197

 ***WARNING: ELEMENT LABEL 197 HAS BEEN USED MORE THAN ONCE. ONLY THE LAST 
             DEFINITION IS CONSIDERED.
  *ELEMENT, TYPE=C3D8, ELSET=Elset198

 ***WARNING: ELEMENT LABEL 198 HAS BEEN USED MORE THAN ONCE. ONLY THE LAST 
             DEFINITION IS CONSIDERED.
  *ELEMENT, TYPE=C3D8, ELSET=Elset199

 ***WARNING: ELEMENT LABEL 199 HAS BEEN USED MORE THAN ONCE. ONLY THE LAST 
             DEFINITION IS CONSIDERED.
  *ELEMENT, TYPE=C3D8, ELSET=Elset200

 ***WARNING: ELEMENT LABEL 200 HAS BEEN USED MORE THAN ONCE. ONLY THE LAST 
             DEFINITION IS CONSIDERED.
  *ELEMENT, TYPE=C3D8, ELSET=Elset229

 ***WARNING: ELEMENT LABEL 229 HAS BEEN USED MORE THAN ONCE. ONLY THE LAST 
             DEFINITION IS CONSIDERED.
  *ELEMENT, TYPE=C3D8, ELSET=Elset230

 ***WARNING: ELEMENT LABEL 230 HAS BEEN USED MORE THAN ONCE. ONLY THE LAST 
             DEFINITION IS CONSIDERED.
  *ELEMENT, TYPE=C3D8, ELSET=Elset231

 ***WARNING: ELEMENT LABEL 231 HAS BEEN USED MORE THAN ONCE. ONLY THE LAST 
             DEFINITION IS CONSIDERED.
  *ELEMENT, TYPE=C3D8, ELSET=Elset232

 ***WARNING: ELEMENT LABEL 232 HAS BEEN USED MORE THAN ONCE. ONLY THE LAST 
             DEFINITION IS CONSIDERED.
  *ELEMENT, TYPE=C3D8, ELSET=Elset233

 ***WARNING: ELEMENT LABEL 233 HAS BEEN USED MORE THAN ONCE. ONLY THE LAST 
             DEFINITION IS CONSIDERED.
  *ELEMENT, TYPE=C3D8, ELSET=Elset234

 ***WARNING: ELEMENT LABEL 234 HAS BEEN USED MORE THAN ONCE. ONLY THE LAST 
             DEFINITION IS CONSIDERED.
  *ELEMENT, TYPE=C3D8, ELSET=Elset235

 ***WARNING: ELEMENT LABEL 235 HAS BEEN USED MORE THAN ONCE. ONLY THE LAST 
             DEFINITION IS CONSIDERED.
  *ELEMENT, TYPE=C3D8, ELSET=Elset236

 ***WARNING: ELEMENT LABEL 236 HAS BEEN USED MORE THAN ONCE. ONLY THE LAST 
             DEFINITION IS CONSIDERED.
  *ELEMENT, TYPE=C3D8, ELSET=Elset237

 ***WARNING: ELEMENT LABEL 237 HAS BEEN USED MORE THAN ONCE. ONLY THE LAST 
             DEFINITION IS CONSIDERED.
  *ELEMENT, TYPE=C3D8, ELSET=Elset238

 ***WARNING: ELEMENT LABEL 238 HAS BEEN USED MORE THAN ONCE. ONLY THE LAST 
             DEFINITION IS CONSIDERED.
  *ELEMENT, TYPE=C3D8, ELSET=Elset239

 ***WARNING: ELEMENT LABEL 239 HAS BEEN USED MORE THAN ONCE. ONLY THE LAST 
             DEFINITION IS CONSIDERED.
  *ELEMENT, TYPE=C3D8, ELSET=Elset240

 ***WARNING: ELEMENT LABEL 240 HAS BEEN USED MORE THAN ONCE. ONLY THE LAST 
             DEFINITION IS CONSIDERED.
  *ELEMENT, TYPE=C3D8, ELSET=Elset264

 ***WARNING: ELEMENT LABEL 264 HAS BEEN USED MORE THAN ONCE. ONLY THE LAST 
             DEFINITION IS CONSIDERED.
  *ELEMENT, TYPE=C3D8, ELSET=Elset265

 ***WARNING: ELEMENT LABEL 265 HAS BEEN USED MORE THAN ONCE. ONLY THE LAST 
             DEFINITION IS CONSIDERED.
  *ELEMENT, TYPE=C3D8, ELSET=Elset266

 ***WARNING: ELEMENT LABEL 266 HAS BEEN USED MORE THAN ONCE. ONLY THE LAST 
             DEFINITION IS CONSIDERED.
  *ELEMENT, TYPE=C3D8, ELSET=Elset267

 ***WARNING: ELEMENT LABEL 267 HAS BEEN USED MORE THAN ONCE. ONLY THE LAST 
             DEFINITION IS CONSIDERED.
  *ELEMENT, TYPE=C3D8, ELSET=Elset268

 ***WARNING: ELEMENT LABEL 268 HAS BEEN USED MORE THAN ONCE. ONLY THE LAST 
             DEFINITION IS CONSIDERED.
  *ELEMENT, TYPE=C3D8, ELSET=Elset269

 ***WARNING: ELEMENT LABEL 269 HAS BEEN USED MORE THAN ONCE. ONLY THE LAST 
             DEFINITION IS CONSIDERED.
  *ELEMENT, TYPE=C3D8, ELSET=Elset270

 ***WARNING: ELEMENT LABEL 270 HAS BEEN USED MORE THAN ONCE. ONLY THE LAST 
             DEFINITION IS CONSIDERED.
  *ELEMENT, TYPE=C3D8, ELSET=Elset271

 ***WARNING: ELEMENT LABEL 271 HAS BEEN USED MORE THAN ONCE. ONLY THE LAST 
             DEFINITION IS CONSIDERED.
  *ELEMENT, TYPE=C3D8, ELSET=Elset272

 ***WARNING: ELEMENT LABEL 272 HAS BEEN USED MORE THAN ONCE. ONLY THE LAST 
             DEFINITION IS CONSIDERED.
  *ELEMENT, TYPE=C3D8, ELSET=Elset273

 ***WARNING: ELEMENT LABEL 273 HAS BEEN USED MORE THAN ONCE. ONLY THE LAST 
             DEFINITION IS CONSIDERED.
  *ELEMENT, TYPE=C3D8, ELSET=Elset274

 ***WARNING: ELEMENT LABEL 274 HAS BEEN USED MORE THAN ONCE. ONLY THE LAST 
             DEFINITION IS CONSIDERED.
  *ELEMENT, TYPE=C3D8, ELSET=Elset275

 ***WARNING: ELEMENT LABEL 275 HAS BEEN USED MORE THAN ONCE. ONLY THE LAST 
             DEFINITION IS CONSIDERED.
  *ELEMENT, TYPE=C3D8, ELSET=Elset276

 ***WARNING: ELEMENT LABEL 276 HAS BEEN USED MORE THAN ONCE. ONLY THE LAST 
             DEFINITION IS CONSIDERED.
  *ELEMENT, TYPE=C3D8, ELSET=Elset277

 ***WARNING: ELEMENT LABEL 277 HAS BEEN USED MORE THAN ONCE. ONLY THE LAST 
             DEFINITION IS CONSIDERED.
  *ELEMENT, TYPE=C3D8, ELSET=Elset278

 ***WARNING: ELEMENT LABEL 278 HAS BEEN USED MORE THAN ONCE. ONLY THE LAST 
             DEFINITION IS CONSIDERED.
  *ELEMENT, TYPE=C3D8, ELSET=Elset279

 ***WARNING: ELEMENT LABEL 279 HAS BEEN USED MORE THAN ONCE. ONLY THE LAST 
             DEFINITION IS CONSIDERED.
  *ELEMENT, TYPE=C3D8, ELSET=Elset300

 ***WARNING: ELEMENT LABEL 300 HAS BEEN USED MORE THAN ONCE. ONLY THE LAST 
             DEFINITION IS CONSIDERED.
  *ELEMENT, TYPE=C3D8, ELSET=Elset301

 ***WARNING: ELEMENT LABEL 301 HAS BEEN USED MORE THAN ONCE. ONLY THE LAST 
             DEFINITION IS CONSIDERED.
  *ELEMENT, TYPE=C3D8, ELSET=Elset302

 ***WARNING: ELEMENT LABEL 302 HAS BEEN USED MORE THAN ONCE. ONLY THE LAST 
             DEFINITION IS CONSIDERED.
  *ELEMENT, TYPE=C3D8, ELSET=Elset303

 ***WARNING: ELEMENT LABEL 303 HAS BEEN USED MORE THAN ONCE. ONLY THE LAST 
             DEFINITION IS CONSIDERED.
  *ELEMENT, TYPE=C3D8, ELSET=Elset304

 ***WARNING: ELEMENT LABEL 304 HAS BEEN USED MORE THAN ONCE. ONLY THE LAST 
             DEFINITION IS CONSIDERED.
  *ELEMENT, TYPE=C3D8, ELSET=Elset305

 ***WARNING: ELEMENT LABEL 305 HAS BEEN USED MORE THAN ONCE. ONLY THE LAST 
             DEFINITION IS CONSIDERED.
  *ELEMENT, TYPE=C3D8, ELSET=Elset306

 ***WARNING: ELEMENT LABEL 306 HAS BEEN USED MORE THAN ONCE. ONLY THE LAST 
             DEFINITION IS CONSIDERED.
  *ELEMENT, TYPE=C3D8, ELSET=Elset307

 ***WARNING: ELEMENT LABEL 307 HAS BEEN USED MORE THAN ONCE. ONLY THE LAST 
             DEFINITION IS CONSIDERED.
  *ELEMENT, TYPE=C3D8, ELSET=Elset308

 ***WARNING: ELEMENT LABEL 308 HAS BEEN USED MORE THAN ONCE. ONLY THE LAST 
             DEFINITION IS CONSIDERED.
  *ELEMENT, TYPE=C3D8, ELSET=Elset309

 ***WARNING: ELEMENT LABEL 309 HAS BEEN USED MORE THAN ONCE. ONLY THE LAST 
             DEFINITION IS CONSIDERED.
  *ELEMENT, TYPE=C3D8, ELSET=Elset310

 ***WARNING: ELEMENT LABEL 310 HAS BEEN USED MORE THAN ONCE. ONLY THE LAST 
             DEFINITION IS CONSIDERED.
  *ELEMENT, TYPE=C3D8, ELSET=Elset311

 ***WARNING: ELEMENT LABEL 311 HAS BEEN USED MORE THAN ONCE. ONLY THE LAST 
             DEFINITION IS CONSIDERED.
  *ELEMENT, TYPE=C3D8, ELSET=Elset312

 ***WARNING: ELEMENT LABEL 312 HAS BEEN USED MORE THAN ONCE. ONLY THE LAST 
             DEFINITION IS CONSIDERED.
  *ELEMENT, TYPE=C3D8, ELSET=Elset313

 ***WARNING: ELEMENT LABEL 313 HAS BEEN USED MORE THAN ONCE. ONLY THE LAST 
             DEFINITION IS CONSIDERED.
  *ELEMENT, TYPE=C3D8, ELSET=Elset314

 ***WARNING: ELEMENT LABEL 314 HAS BEEN USED MORE THAN ONCE. ONLY THE LAST 
             DEFINITION IS CONSIDERED.
  *ELEMENT, TYPE=C3D8, ELSET=Elset315

 ***WARNING: ELEMENT LABEL 315 HAS BEEN USED MORE THAN ONCE. ONLY THE LAST 
             DEFINITION IS CONSIDERED.
  *ELEMENT, TYPE=C3D8, ELSET=Elset316

 ***WARNING: ELEMENT LABEL 316 HAS BEEN USED MORE THAN ONCE. ONLY THE LAST 
             DEFINITION IS CONSIDERED.
  *ELEMENT, TYPE=C3D8, ELSET=Elset317

 ***WARNING: ELEMENT LABEL 317 HAS BEEN USED MORE THAN ONCE. ONLY THE LAST 
             DEFINITION IS CONSIDERED.
  *ELEMENT, TYPE=C3D8, ELSET=Elset335

 ***WARNING: ELEMENT LABEL 335 HAS BEEN USED MORE THAN ONCE. ONLY THE LAST 
             DEFINITION IS CONSIDERED.
  *ELEMENT, TYPE=C3D8, ELSET=Elset336

 ***WARNING: ELEMENT LABEL 336 HAS BEEN USED MORE THAN ONCE. ONLY THE LAST 
             DEFINITION IS CONSIDERED.
  *ELEMENT, TYPE=C3D8, ELSET=Elset337

 ***WARNING: ELEMENT LABEL 337 HAS BEEN USED MORE THAN ONCE. ONLY THE LAST 
             DEFINITION IS CONSIDERED.
  *ELEMENT, TYPE=C3D8, ELSET=Elset338

 ***WARNING: ELEMENT LABEL 338 HAS BEEN USED MORE THAN ONCE. ONLY THE LAST 
             DEFINITION IS CONSIDERED.
  *ELEMENT, TYPE=C3D8, ELSET=Elset339

 ***WARNING: ELEMENT LABEL 339 HAS BEEN USED MORE THAN ONCE. ONLY THE LAST 
             DEFINITION IS CONSIDERED.
  *ELEMENT, TYPE=C3D8, ELSET=Elset340

 ***WARNING: ELEMENT LABEL 340 HAS BEEN USED MORE THAN ONCE. ONLY THE LAST 
             DEFINITION IS CONSIDERED.
  *ELEMENT, TYPE=C3D8, ELSET=Elset341

 ***WARNING: ELEMENT LABEL 341 HAS BEEN USED MORE THAN ONCE. ONLY THE LAST 
             DEFINITION IS CONSIDERED.
  *ELEMENT, TYPE=C3D8, ELSET=Elset342

 ***WARNING: ELEMENT LABEL 342 HAS BEEN USED MORE THAN ONCE. ONLY THE LAST 
             DEFINITION IS CONSIDERED.
  *ELEMENT, TYPE=C3D8, ELSET=Elset343

 ***WARNING: ELEMENT LABEL 343 HAS BEEN USED MORE THAN ONCE. ONLY THE LAST 
             DEFINITION IS CONSIDERED.
  *ELEMENT, TYPE=C3D8, ELSET=Elset344

 ***WARNING: ELEMENT LABEL 344 HAS BEEN USED MORE THAN ONCE. ONLY THE LAST 
             DEFINITION IS CONSIDERED.
  *ELEMENT, TYPE=C3D8, ELSET=Elset345

 ***WARNING: ELEMENT LABEL 345 HAS BEEN USED MORE THAN ONCE. ONLY THE LAST 
             DEFINITION IS CONSIDERED.
  *ELEMENT, TYPE=C3D8, ELSET=Elset346

 ***WARNING: ELEMENT LABEL 346 HAS BEEN USED MORE THAN ONCE. ONLY THE LAST 
             DEFINITION IS CONSIDERED.
  *ELEMENT, TYPE=C3D8, ELSET=Elset347

 ***WARNING: ELEMENT LABEL 347 HAS BEEN USED MORE THAN ONCE. ONLY THE LAST 
             DEFINITION IS CONSIDERED.
  *ELEMENT, TYPE=C3D8, ELSET=Elset348

 ***WARNING: ELEMENT LABEL 348 HAS BEEN USED MORE THAN ONCE. ONLY THE LAST 
             DEFINITION IS CONSIDERED.
  *ELEMENT, TYPE=C3D8, ELSET=Elset349

 ***WARNING: ELEMENT LABEL 349 HAS BEEN USED MORE THAN ONCE. ONLY THE LAST 
             DEFINITION IS CONSIDERED.
  *ELEMENT, TYPE=C3D8, ELSET=Elset350

 ***WARNING: ELEMENT LABEL 350 HAS BEEN USED MORE THAN ONCE. ONLY THE LAST 
             DEFINITION IS CONSIDERED.
  *ELEMENT, TYPE=C3D8, ELSET=Elset351

 ***WARNING: ELEMENT LABEL 351 HAS BEEN USED MORE THAN ONCE. ONLY THE LAST 
             DEFINITION IS CONSIDERED.
  *ELEMENT, TYPE=C3D8, ELSET=Elset352

 ***WARNING: ELEMENT LABEL 352 HAS BEEN USED MORE THAN ONCE. ONLY THE LAST 
             DEFINITION IS CONSIDERED.
  *ELEMENT, TYPE=C3D8, ELSET=Elset353

 ***WARNING: ELEMENT LABEL 353 HAS BEEN USED MORE THAN ONCE. ONLY THE LAST 
             DEFINITION IS CONSIDERED.
  *ELEMENT, TYPE=C3D8, ELSET=Elset354

 ***WARNING: ELEMENT LABEL 354 HAS BEEN USED MORE THAN ONCE. ONLY THE LAST 
             DEFINITION IS CONSIDERED.
  *ELEMENT, TYPE=C3D8, ELSET=Elset371

 ***WARNING: ELEMENT LABEL 371 HAS BEEN USED MORE THAN ONCE. ONLY THE LAST 
             DEFINITION IS CONSIDERED.
  *ELEMENT, TYPE=C3D8, ELSET=Elset372

 ***WARNING: ELEMENT LABEL 372 HAS BEEN USED MORE THAN ONCE. ONLY THE LAST 
             DEFINITION IS CONSIDERED.
  *ELEMENT, TYPE=C3D8, ELSET=Elset373

 ***WARNING: ELEMENT LABEL 373 HAS BEEN USED MORE THAN ONCE. ONLY THE LAST 
             DEFINITION IS CONSIDERED.
  *ELEMENT, TYPE=C3D8, ELSET=Elset374

 ***WARNING: ELEMENT LABEL 374 HAS BEEN USED MORE THAN ONCE. ONLY THE LAST 
             DEFINITION IS CONSIDERED.
  *ELEMENT, TYPE=C3D8, ELSET=Elset375

 ***WARNING: ELEMENT LABEL 375 HAS BEEN USED MORE THAN ONCE. ONLY THE LAST 
             DEFINITION IS CONSIDERED.
  *ELEMENT, TYPE=C3D8, ELSET=Elset376

 ***WARNING: ELEMENT LABEL 376 HAS BEEN USED MORE THAN ONCE. ONLY THE LAST 
             DEFINITION IS CONSIDERED.
  *ELEMENT, TYPE=C3D8, ELSET=Elset377

 ***WARNING: ELEMENT LABEL 377 HAS BEEN USED MORE THAN ONCE. ONLY THE LAST 
             DEFINITION IS CONSIDERED.
  *ELEMENT, TYPE=C3D8, ELSET=Elset378

 ***WARNING: ELEMENT LABEL 378 HAS BEEN USED MORE THAN ONCE. ONLY THE LAST 
             DEFINITION IS CONSIDERED.
  *ELEMENT, TYPE=C3D8, ELSET=Elset379

 ***WARNING: ELEMENT LABEL 379 HAS BEEN USED MORE THAN ONCE. ONLY THE LAST 
             DEFINITION IS CONSIDERED.
  *ELEMENT, TYPE=C3D8, ELSET=Elset380

 ***WARNING: ELEMENT LABEL 380 HAS BEEN USED MORE THAN ONCE. ONLY THE LAST 
             DEFINITION IS CONSIDERED.
  *ELEMENT, TYPE=C3D8, ELSET=Elset381

 ***WARNING: ELEMENT LABEL 381 HAS BEEN USED MORE THAN ONCE. ONLY THE LAST 
             DEFINITION IS CONSIDERED.
  *ELEMENT, TYPE=C3D8, ELSET=Elset382

 ***WARNING: ELEMENT LABEL 382 HAS BEEN USED MORE THAN ONCE. ONLY THE LAST 
             DEFINITION IS CONSIDERED.
  *ELEMENT, TYPE=C3D8, ELSET=Elset383

 ***WARNING: ELEMENT LABEL 383 HAS BEEN USED MORE THAN ONCE. ONLY THE LAST 
             DEFINITION IS CONSIDERED.
  *ELEMENT, TYPE=C3D8, ELSET=Elset384

 ***WARNING: ELEMENT LABEL 384 HAS BEEN USED MORE THAN ONCE. ONLY THE LAST 
             DEFINITION IS CONSIDERED.
  *ELEMENT, TYPE=C3D8, ELSET=Elset385

 ***WARNING: ELEMENT LABEL 385 HAS BEEN USED MORE THAN ONCE. ONLY THE LAST 
             DEFINITION IS CONSIDERED.
  *ELEMENT, TYPE=C3D8, ELSET=Elset386

 ***WARNING: ELEMENT LABEL 386 HAS BEEN USED MORE THAN ONCE. ONLY THE LAST 
             DEFINITION IS CONSIDERED.
  *ELEMENT, TYPE=C3D8, ELSET=Elset387

 ***WARNING: ELEMENT LABEL 387 HAS BEEN USED MORE THAN ONCE. ONLY THE LAST 
             DEFINITION IS CONSIDERED.
  *ELEMENT, TYPE=C3D8, ELSET=Elset388

 ***WARNING: ELEMENT LABEL 388 HAS BEEN USED MORE THAN ONCE. ONLY THE LAST 
             DEFINITION IS CONSIDERED.
  *ELEMENT, TYPE=C3D8, ELSET=Elset389

 ***WARNING: ELEMENT LABEL 389 HAS BEEN USED MORE THAN ONCE. ONLY THE LAST 
             DEFINITION IS CONSIDERED.
  *ELEMENT, TYPE=C3D8, ELSET=Elset390

 ***WARNING: ELEMENT LABEL 390 HAS BEEN USED MORE THAN ONCE. ONLY THE LAST 
             DEFINITION IS CONSIDERED.
  *ELEMENT, TYPE=C3D8, ELSET=Elset391

 ***WARNING: ELEMENT LABEL 391 HAS BEEN USED MORE THAN ONCE. ONLY THE LAST 
             DEFINITION IS CONSIDERED.
  *ELEMENT, TYPE=C3D8, ELSET=Elset407

 ***WARNING: ELEMENT LABEL 407 HAS BEEN USED MORE THAN ONCE. ONLY THE LAST 
             DEFINITION IS CONSIDERED.
  *ELEMENT, TYPE=C3D8, ELSET=Elset408

 ***WARNING: ELEMENT LABEL 408 HAS BEEN USED MORE THAN ONCE. ONLY THE LAST 
             DEFINITION IS CONSIDERED.
  *ELEMENT, TYPE=C3D8, ELSET=Elset409

 ***WARNING: ELEMENT LABEL 409 HAS BEEN USED MORE THAN ONCE. ONLY THE LAST 
             DEFINITION IS CONSIDERED.
  *ELEMENT, TYPE=C3D8, ELSET=Elset410

 ***WARNING: ELEMENT LABEL 410 HAS BEEN USED MORE THAN ONCE. ONLY THE LAST 
             DEFINITION IS CONSIDERED.
  *ELEMENT, TYPE=C3D8, ELSET=Elset411

 ***WARNING: ELEMENT LABEL 411 HAS BEEN USED MORE THAN ONCE. ONLY THE LAST 
             DEFINITION IS CONSIDERED.
  *ELEMENT, TYPE=C3D8, ELSET=Elset412

 ***WARNING: ELEMENT LABEL 412 HAS BEEN USED MORE THAN ONCE. ONLY THE LAST 
             DEFINITION IS CONSIDERED.
  *ELEMENT, TYPE=C3D8, ELSET=Elset413

 ***WARNING: ELEMENT LABEL 413 HAS BEEN USED MORE THAN ONCE. ONLY THE LAST 
             DEFINITION IS CONSIDERED.
  *ELEMENT, TYPE=C3D8, ELSET=Elset414

 ***WARNING: ELEMENT LABEL 414 HAS BEEN USED MORE THAN ONCE. ONLY THE LAST 
             DEFINITION IS CONSIDERED.
  *ELEMENT, TYPE=C3D8, ELSET=Elset415

 ***WARNING: ELEMENT LABEL 415 HAS BEEN USED MORE THAN ONCE. ONLY THE LAST 
             DEFINITION IS CONSIDERED.
  *ELEMENT, TYPE=C3D8, ELSET=Elset416

 ***WARNING: ELEMENT LABEL 416 HAS BEEN USED MORE THAN ONCE. ONLY THE LAST 
             DEFINITION IS CONSIDERED.
  *ELEMENT, TYPE=C3D8, ELSET=Elset417

 ***WARNING: ELEMENT LABEL 417 HAS BEEN USED MORE THAN ONCE. ONLY THE LAST 
             DEFINITION IS CONSIDERED.
  *ELEMENT, TYPE=C3D8, ELSET=Elset418

 ***WARNING: ELEMENT LABEL 418 HAS BEEN USED MORE THAN ONCE. ONLY THE LAST 
             DEFINITION IS CONSIDERED.
  *ELEMENT, TYPE=C3D8, ELSET=Elset419

 ***WARNING: ELEMENT LABEL 419 HAS BEEN USED MORE THAN ONCE. ONLY THE LAST 
             DEFINITION IS CONSIDERED.
  *ELEMENT, TYPE=C3D8, ELSET=Elset420

 ***WARNING: ELEMENT LABEL 420 HAS BEEN USED MORE THAN ONCE. ONLY THE LAST 
             DEFINITION IS CONSIDERED.
  *ELEMENT, TYPE=C3D8, ELSET=Elset421

 ***WARNING: ELEMENT LABEL 421 HAS BEEN USED MORE THAN ONCE. ONLY THE LAST 
             DEFINITION IS CONSIDERED.
  *ELEMENT, TYPE=C3D8, ELSET=Elset422

 ***WARNING: ELEMENT LABEL 422 HAS BEEN USED MORE THAN ONCE. ONLY THE LAST 
             DEFINITION IS CONSIDERED.
  *ELEMENT, TYPE=C3D8, ELSET=Elset423

 ***WARNING: ELEMENT LABEL 423 HAS BEEN USED MORE THAN ONCE. ONLY THE LAST 
             DEFINITION IS CONSIDERED.
  *ELEMENT, TYPE=C3D8, ELSET=Elset424

 ***WARNING: ELEMENT LABEL 424 HAS BEEN USED MORE THAN ONCE. ONLY THE LAST 
             DEFINITION IS CONSIDERED.
  *ELEMENT, TYPE=C3D8, ELSET=Elset425

 ***WARNING: ELEMENT LABEL 425 HAS BEEN USED MORE THAN ONCE. ONLY THE LAST 
             DEFINITION IS CONSIDERED.
  *ELEMENT, TYPE=C3D8, ELSET=Elset426

 ***WARNING: ELEMENT LABEL 426 HAS BEEN USED MORE THAN ONCE. ONLY THE LAST 
             DEFINITION IS CONSIDERED.
  *ELEMENT, TYPE=C3D8, ELSET=Elset427

 ***WARNING: ELEMENT LABEL 427 HAS BEEN USED MORE THAN ONCE. ONLY THE LAST 
             DEFINITION IS CONSIDERED.
  *ELEMENT, TYPE=C3D8, ELSET=Elset428

 ***WARNING: ELEMENT LABEL 428 HAS BEEN USED MORE THAN ONCE. ONLY THE LAST 
             DEFINITION IS CONSIDERED.
  *ELEMENT, TYPE=C3D8, ELSET=Elset443

 ***WARNING: ELEMENT LABEL 443 HAS BEEN USED MORE THAN ONCE. ONLY THE LAST 
             DEFINITION IS CONSIDERED.
  *ELEMENT, TYPE=C3D8, ELSET=Elset444

 ***WARNING: ELEMENT LABEL 444 HAS BEEN USED MORE THAN ONCE. ONLY THE LAST 
             DEFINITION IS CONSIDERED.
  *ELEMENT, TYPE=C3D8, ELSET=Elset445

 ***WARNING: ELEMENT LABEL 445 HAS BEEN USED MORE THAN ONCE. ONLY THE LAST 
             DEFINITION IS CONSIDERED.
  *ELEMENT, TYPE=C3D8, ELSET=Elset446

 ***WARNING: ELEMENT LABEL 446 HAS BEEN USED MORE THAN ONCE. ONLY THE LAST 
             DEFINITION IS CONSIDERED.
  *ELEMENT, TYPE=C3D8, ELSET=Elset447

 ***WARNING: ELEMENT LABEL 447 HAS BEEN USED MORE THAN ONCE. ONLY THE LAST 
             DEFINITION IS CONSIDERED.
  *ELEMENT, TYPE=C3D8, ELSET=Elset448

 ***WARNING: ELEMENT LABEL 448 HAS BEEN USED MORE THAN ONCE. ONLY THE LAST 
             DEFINITION IS CONSIDERED.
  *ELEMENT, TYPE=C3D8, ELSET=Elset449

 ***WARNING: ELEMENT LABEL 449 HAS BEEN USED MORE THAN ONCE. ONLY THE LAST 
             DEFINITION IS CONSIDERED.
  *ELEMENT, TYPE=C3D8, ELSET=Elset450

 ***WARNING: ELEMENT LABEL 450 HAS BEEN USED MORE THAN ONCE. ONLY THE LAST 
             DEFINITION IS CONSIDERED.
  *ELEMENT, TYPE=C3D8, ELSET=Elset451

 ***WARNING: ELEMENT LABEL 451 HAS BEEN USED MORE THAN ONCE. ONLY THE LAST 
             DEFINITION IS CONSIDERED.
  *ELEMENT, TYPE=C3D8, ELSET=Elset452

 ***WARNING: ELEMENT LABEL 452 HAS BEEN USED MORE THAN ONCE. ONLY THE LAST 
             DEFINITION IS CONSIDERED.
  *ELEMENT, TYPE=C3D8, ELSET=Elset453

 ***WARNING: ELEMENT LABEL 453 HAS BEEN USED MORE THAN ONCE. ONLY THE LAST 
             DEFINITION IS CONSIDERED.
  *ELEMENT, TYPE=C3D8, ELSET=Elset454

 ***WARNING: ELEMENT LABEL 454 HAS BEEN USED MORE THAN ONCE. ONLY THE LAST 
             DEFINITION IS CONSIDERED.
  *ELEMENT, TYPE=C3D8, ELSET=Elset455

 ***WARNING: ELEMENT LABEL 455 HAS BEEN USED MORE THAN ONCE. ONLY THE LAST 
             DEFINITION IS CONSIDERED.
  *ELEMENT, TYPE=C3D8, ELSET=Elset456

 ***WARNING: ELEMENT LABEL 456 HAS BEEN USED MORE THAN ONCE. ONLY THE LAST 
             DEFINITION IS CONSIDERED.
  *ELEMENT, TYPE=C3D8, ELSET=Elset457

 ***WARNING: ELEMENT LABEL 457 HAS BEEN USED MORE THAN ONCE. ONLY THE LAST 
             DEFINITION IS CONSIDERED.
  *ELEMENT, TYPE=C3D8, ELSET=Elset458

 ***WARNING: ELEMENT LABEL 458 HAS BEEN USED MORE THAN ONCE. ONLY THE LAST 
             DEFINITION IS CONSIDERED.
  *ELEMENT, TYPE=C3D8, ELSET=Elset459

 ***WARNING: ELEMENT LABEL 459 HAS BEEN USED MORE THAN ONCE. ONLY THE LAST 
             DEFINITION IS CONSIDERED.
  *ELEMENT, TYPE=C3D8, ELSET=Elset460

 ***WARNING: ELEMENT LABEL 460 HAS BEEN USED MORE THAN ONCE. ONLY THE LAST 
             DEFINITION IS CONSIDERED.
  *ELEMENT, TYPE=C3D8, ELSET=Elset461

 ***WARNING: ELEMENT LABEL 461 HAS BEEN USED MORE THAN ONCE. ONLY THE LAST 
             DEFINITION IS CONSIDERED.
  *ELEMENT, TYPE=C3D8, ELSET=Elset462

 ***WARNING: ELEMENT LABEL 462 HAS BEEN USED MORE THAN ONCE. ONLY THE LAST 
             DEFINITION IS CONSIDERED.
  *ELEMENT, TYPE=C3D8, ELSET=Elset463

 ***WARNING: ELEMENT LABEL 463 HAS BEEN USED MORE THAN ONCE. ONLY THE LAST 
             DEFINITION IS CONSIDERED.
  *ELEMENT, TYPE=C3D8, ELSET=Elset464

 ***WARNING: ELEMENT LABEL 464 HAS BEEN USED MORE THAN ONCE. ONLY THE LAST 
             DEFINITION IS CONSIDERED.
  *ELEMENT, TYPE=C3D8, ELSET=Elset479

 ***WARNING: ELEMENT LABEL 479 HAS BEEN USED MORE THAN ONCE. ONLY THE LAST 
             DEFINITION IS CONSIDERED.
  *ELEMENT, TYPE=C3D8, ELSET=Elset480

 ***WARNING: ELEMENT LABEL 480 HAS BEEN USED MORE THAN ONCE. ONLY THE LAST 
             DEFINITION IS CONSIDERED.
  *ELEMENT, TYPE=C3D8, ELSET=Elset481

 ***WARNING: ELEMENT LABEL 481 HAS BEEN USED MORE THAN ONCE. ONLY THE LAST 
             DEFINITION IS CONSIDERED.
  *ELEMENT, TYPE=C3D8, ELSET=Elset482

 ***WARNING: ELEMENT LABEL 482 HAS BEEN USED MORE THAN ONCE. ONLY THE LAST 
             DEFINITION IS CONSIDERED.
  *ELEMENT, TYPE=C3D8, ELSET=Elset483

 ***WARNING: ELEMENT LABEL 483 HAS BEEN USED MORE THAN ONCE. ONLY THE LAST 
             DEFINITION IS CONSIDERED.
  *ELEMENT, TYPE=C3D8, ELSET=Elset484

 ***WARNING: ELEMENT LABEL 484 HAS BEEN USED MORE THAN ONCE. ONLY THE LAST 
             DEFINITION IS CONSIDERED.
  *ELEMENT, TYPE=C3D8, ELSET=Elset485

 ***WARNING: ELEMENT LABEL 485 HAS BEEN USED MORE THAN ONCE. ONLY THE LAST 
             DEFINITION IS CONSIDERED.
  *ELEMENT, TYPE=C3D8, ELSET=Elset486

 ***WARNING: ELEMENT LABEL 486 HAS BEEN USED MORE THAN ONCE. ONLY THE LAST 
             DEFINITION IS CONSIDERED.
  *ELEMENT, TYPE=C3D8, ELSET=Elset487

 ***WARNING: ELEMENT LABEL 487 HAS BEEN USED MORE THAN ONCE. ONLY THE LAST 
             DEFINITION IS CONSIDERED.
  *ELEMENT, TYPE=C3D8, ELSET=Elset488

 ***WARNING: ELEMENT LABEL 488 HAS BEEN USED MORE THAN ONCE. ONLY THE LAST 
             DEFINITION IS CONSIDERED.
  *ELEMENT, TYPE=C3D8, ELSET=Elset489

 ***WARNING: ELEMENT LABEL 489 HAS BEEN USED MORE THAN ONCE. ONLY THE LAST 
             DEFINITION IS CONSIDERED.
  *ELEMENT, TYPE=C3D8, ELSET=Elset490

 ***WARNING: ELEMENT LABEL 490 HAS BEEN USED MORE THAN ONCE. ONLY THE LAST 
             DEFINITION IS CONSIDERED.
  *ELEMENT, TYPE=C3D8, ELSET=Elset491

 ***WARNING: ELEMENT LABEL 491 HAS BEEN USED MORE THAN ONCE. ONLY THE LAST 
             DEFINITION IS CONSIDERED.
  *ELEMENT, TYPE=C3D8, ELSET=Elset492

 ***WARNING: ELEMENT LABEL 492 HAS BEEN USED MORE THAN ONCE. ONLY THE LAST 
             DEFINITION IS CONSIDERED.
  *ELEMENT, TYPE=C3D8, ELSET=Elset493

 ***WARNING: ELEMENT LABEL 493 HAS BEEN USED MORE THAN ONCE. ONLY THE LAST 
             DEFINITION IS CONSIDERED.
  *ELEMENT, TYPE=C3D8, ELSET=Elset494

 ***WARNING: ELEMENT LABEL 494 HAS BEEN USED MORE THAN ONCE. ONLY THE LAST 
             DEFINITION IS CONSIDERED.
  *ELEMENT, TYPE=C3D8, ELSET=Elset495

 ***WARNING: ELEMENT LABEL 495 HAS BEEN USED MORE THAN ONCE. ONLY THE LAST 
             DEFINITION IS CONSIDERED.
  *ELEMENT, TYPE=C3D8, ELSET=Elset496

 ***WARNING: ELEMENT LABEL 496 HAS BEEN USED MORE THAN ONCE. ONLY THE LAST 
             DEFINITION IS CONSIDERED.
  *ELEMENT, TYPE=C3D8, ELSET=Elset497

 ***WARNING: ELEMENT LABEL 497 HAS BEEN USED MORE THAN ONCE. ONLY THE LAST 
             DEFINITION IS CONSIDERED.
  *ELEMENT, TYPE=C3D8, ELSET=Elset498

 ***WARNING: ELEMENT LABEL 498 HAS BEEN USED MORE THAN ONCE. ONLY THE LAST 
             DEFINITION IS CONSIDERED.
  *ELEMENT, TYPE=C3D8, ELSET=Elset499

 ***WARNING: ELEMENT LABEL 499 HAS BEEN USED MORE THAN ONCE. ONLY THE LAST 
             DEFINITION IS CONSIDERED.
  *ELEMENT, TYPE=C3D8, ELSET=Elset515

 ***WARNING: ELEMENT LABEL 515 HAS BEEN USED MORE THAN ONCE. ONLY THE LAST 
             DEFINITION IS CONSIDERED.
  *ELEMENT, TYPE=C3D8, ELSET=Elset516

 ***WARNING: ELEMENT LABEL 516 HAS BEEN USED MORE THAN ONCE. ONLY THE LAST 
             DEFINITION IS CONSIDERED.
  *ELEMENT, TYPE=C3D8, ELSET=Elset517

 ***WARNING: ELEMENT LABEL 517 HAS BEEN USED MORE THAN ONCE. ONLY THE LAST 
             DEFINITION IS CONSIDERED.
  *ELEMENT, TYPE=C3D8, ELSET=Elset518

 ***WARNING: ELEMENT LABEL 518 HAS BEEN USED MORE THAN ONCE. ONLY THE LAST 
             DEFINITION IS CONSIDERED.
  *ELEMENT, TYPE=C3D8, ELSET=Elset519

 ***WARNING: ELEMENT LABEL 519 HAS BEEN USED MORE THAN ONCE. ONLY THE LAST 
             DEFINITION IS CONSIDERED.
  *ELEMENT, TYPE=C3D8, ELSET=Elset520

 ***WARNING: ELEMENT LABEL 520 HAS BEEN USED MORE THAN ONCE. ONLY THE LAST 
             DEFINITION IS CONSIDERED.
  *ELEMENT, TYPE=C3D8, ELSET=Elset521

 ***WARNING: ELEMENT LABEL 521 HAS BEEN USED MORE THAN ONCE. ONLY THE LAST 
             DEFINITION IS CONSIDERED.
  *ELEMENT, TYPE=C3D8, ELSET=Elset522

 ***WARNING: ELEMENT LABEL 522 HAS BEEN USED MORE THAN ONCE. ONLY THE LAST 
             DEFINITION IS CONSIDERED.
  *ELEMENT, TYPE=C3D8, ELSET=Elset523

 ***WARNING: ELEMENT LABEL 523 HAS BEEN USED MORE THAN ONCE. ONLY THE LAST 
             DEFINITION IS CONSIDERED.
  *ELEMENT, TYPE=C3D8, ELSET=Elset524

 ***WARNING: ELEMENT LABEL 524 HAS BEEN USED MORE THAN ONCE. ONLY THE LAST 
             DEFINITION IS CONSIDERED.
  *ELEMENT, TYPE=C3D8, ELSET=Elset525

 ***WARNING: ELEMENT LABEL 525 HAS BEEN USED MORE THAN ONCE. ONLY THE LAST 
             DEFINITION IS CONSIDERED.
  *ELEMENT, TYPE=C3D8, ELSET=Elset526

 ***WARNING: ELEMENT LABEL 526 HAS BEEN USED MORE THAN ONCE. ONLY THE LAST 
             DEFINITION IS CONSIDERED.
  *ELEMENT, TYPE=C3D8, ELSET=Elset527

 ***WARNING: ELEMENT LABEL 527 HAS BEEN USED MORE THAN ONCE. ONLY THE LAST 
             DEFINITION IS CONSIDERED.
  *ELEMENT, TYPE=C3D8, ELSET=Elset528

 ***WARNING: ELEMENT LABEL 528 HAS BEEN USED MORE THAN ONCE. ONLY THE LAST 
             DEFINITION IS CONSIDERED.
  *ELEMENT, TYPE=C3D8, ELSET=Elset529

 ***WARNING: ELEMENT LABEL 529 HAS BEEN USED MORE THAN ONCE. ONLY THE LAST 
             DEFINITION IS CONSIDERED.
  *ELEMENT, TYPE=C3D8, ELSET=Elset530

 ***WARNING: ELEMENT LABEL 530 HAS BEEN USED MORE THAN ONCE. ONLY THE LAST 
             DEFINITION IS CONSIDERED.
  *ELEMENT, TYPE=C3D8, ELSET=Elset531

 ***WARNING: ELEMENT LABEL 531 HAS BEEN USED MORE THAN ONCE. ONLY THE LAST 
             DEFINITION IS CONSIDERED.
  *ELEMENT, TYPE=C3D8, ELSET=Elset532

 ***WARNING: ELEMENT LABEL 532 HAS BEEN USED MORE THAN ONCE. ONLY THE LAST 
             DEFINITION IS CONSIDERED.
  *ELEMENT, TYPE=C3D8, ELSET=Elset533

 ***WARNING: ELEMENT LABEL 533 HAS BEEN USED MORE THAN ONCE. ONLY THE LAST 
             DEFINITION IS CONSIDERED.
  *ELEMENT, TYPE=C3D8, ELSET=Elset534

 ***WARNING: ELEMENT LABEL 534 HAS BEEN USED MORE THAN ONCE. ONLY THE LAST 
             DEFINITION IS CONSIDERED.
  *ELEMENT, TYPE=C3D8, ELSET=Elset535

 ***WARNING: ELEMENT LABEL 535 HAS BEEN USED MORE THAN ONCE. ONLY THE LAST 
             DEFINITION IS CONSIDERED.
  *ELEMENT, TYPE=C3D8, ELSET=Elset551

 ***WARNING: ELEMENT LABEL 551 HAS BEEN USED MORE THAN ONCE. ONLY THE LAST 
             DEFINITION IS CONSIDERED.
  *ELEMENT, TYPE=C3D8, ELSET=Elset552

 ***WARNING: ELEMENT LABEL 552 HAS BEEN USED MORE THAN ONCE. ONLY THE LAST 
             DEFINITION IS CONSIDERED.
  *ELEMENT, TYPE=C3D8, ELSET=Elset553

 ***WARNING: ELEMENT LABEL 553 HAS BEEN USED MORE THAN ONCE. ONLY THE LAST 
             DEFINITION IS CONSIDERED.
  *ELEMENT, TYPE=C3D8, ELSET=Elset554

 ***WARNING: ELEMENT LABEL 554 HAS BEEN USED MORE THAN ONCE. ONLY THE LAST 
             DEFINITION IS CONSIDERED.
  *ELEMENT, TYPE=C3D8, ELSET=Elset555

 ***WARNING: ELEMENT LABEL 555 HAS BEEN USED MORE THAN ONCE. ONLY THE LAST 
             DEFINITION IS CONSIDERED.
  *ELEMENT, TYPE=C3D8, ELSET=Elset556

 ***WARNING: ELEMENT LABEL 556 HAS BEEN USED MORE THAN ONCE. ONLY THE LAST 
             DEFINITION IS CONSIDERED.
  *ELEMENT, TYPE=C3D8, ELSET=Elset557

 ***WARNING: ELEMENT LABEL 557 HAS BEEN USED MORE THAN ONCE. ONLY THE LAST 
             DEFINITION IS CONSIDERED.
  *ELEMENT, TYPE=C3D8, ELSET=Elset558

 ***WARNING: ELEMENT LABEL 558 HAS BEEN USED MORE THAN ONCE. ONLY THE LAST 
             DEFINITION IS CONSIDERED.
  *ELEMENT, TYPE=C3D8, ELSET=Elset559

 ***WARNING: ELEMENT LABEL 559 HAS BEEN USED MORE THAN ONCE. ONLY THE LAST 
             DEFINITION IS CONSIDERED.
  *ELEMENT, TYPE=C3D8, ELSET=Elset560

 ***WARNING: ELEMENT LABEL 560 HAS BEEN USED MORE THAN ONCE. ONLY THE LAST 
             DEFINITION IS CONSIDERED.
  *ELEMENT, TYPE=C3D8, ELSET=Elset561

 ***WARNING: ELEMENT LABEL 561 HAS BEEN USED MORE THAN ONCE. ONLY THE LAST 
             DEFINITION IS CONSIDERED.
  *ELEMENT, TYPE=C3D8, ELSET=Elset562

 ***WARNING: ELEMENT LABEL 562 HAS BEEN USED MORE THAN ONCE. ONLY THE LAST 
             DEFINITION IS CONSIDERED.
  *ELEMENT, TYPE=C3D8, ELSET=Elset563

 ***WARNING: ELEMENT LABEL 563 HAS BEEN USED MORE THAN ONCE. ONLY THE LAST 
             DEFINITION IS CONSIDERED.
  *ELEMENT, TYPE=C3D8, ELSET=Elset564

 ***WARNING: ELEMENT LABEL 564 HAS BEEN USED MORE THAN ONCE. ONLY THE LAST 
             DEFINITION IS CONSIDERED.
  *ELEMENT, TYPE=C3D8, ELSET=Elset565

 ***WARNING: ELEMENT LABEL 565 HAS BEEN USED MORE THAN ONCE. ONLY THE LAST 
             DEFINITION IS CONSIDERED.
  *ELEMENT, TYPE=C3D8, ELSET=Elset566

 ***WARNING: ELEMENT LABEL 566 HAS BEEN USED MORE THAN ONCE. ONLY THE LAST 
             DEFINITION IS CONSIDERED.
  *ELEMENT, TYPE=C3D8, ELSET=Elset567

 ***WARNING: ELEMENT LABEL 567 HAS BEEN USED MORE THAN ONCE. ONLY THE LAST 
             DEFINITION IS CONSIDERED.
  *ELEMENT, TYPE=C3D8, ELSET=Elset568

 ***WARNING: ELEMENT LABEL 568 HAS BEEN USED MORE THAN ONCE. ONLY THE LAST 
             DEFINITION IS CONSIDERED.
  *ELEMENT, TYPE=C3D8, ELSET=Elset569

 ***WARNING: ELEMENT LABEL 569 HAS BEEN USED MORE THAN ONCE. ONLY THE LAST 
             DEFINITION IS CONSIDERED.
  *ELEMENT, TYPE=C3D8, ELSET=Elset570

 ***WARNING: ELEMENT LABEL 570 HAS BEEN USED MORE THAN ONCE. ONLY THE LAST 
             DEFINITION IS CONSIDERED.
  *ELEMENT, TYPE=C3D8, ELSET=Elset571

 ***WARNING: ELEMENT LABEL 571 HAS BEEN USED MORE THAN ONCE. ONLY THE LAST 
             DEFINITION IS CONSIDERED.
  *ELEMENT, TYPE=C3D8, ELSET=Elset587

 ***WARNING: ELEMENT LABEL 587 HAS BEEN USED MORE THAN ONCE. ONLY THE LAST 
             DEFINITION IS CONSIDERED.
  *ELEMENT, TYPE=C3D8, ELSET=Elset588

 ***WARNING: ELEMENT LABEL 588 HAS BEEN USED MORE THAN ONCE. ONLY THE LAST 
             DEFINITION IS CONSIDERED.
  *ELEMENT, TYPE=C3D8, ELSET=Elset589

 ***WARNING: ELEMENT LABEL 589 HAS BEEN USED MORE THAN ONCE. ONLY THE LAST 
             DEFINITION IS CONSIDERED.
  *ELEMENT, TYPE=C3D8, ELSET=Elset590

 ***WARNING: ELEMENT LABEL 590 HAS BEEN USED MORE THAN ONCE. ONLY THE LAST 
             DEFINITION IS CONSIDERED.
  *ELEMENT, TYPE=C3D8, ELSET=Elset591

 ***WARNING: ELEMENT LABEL 591 HAS BEEN USED MORE THAN ONCE. ONLY THE LAST 
             DEFINITION IS CONSIDERED.
  *ELEMENT, TYPE=C3D8, ELSET=Elset592

 ***WARNING: ELEMENT LABEL 592 HAS BEEN USED MORE THAN ONCE. ONLY THE LAST 
             DEFINITION IS CONSIDERED.
  *ELEMENT, TYPE=C3D8, ELSET=Elset593

 ***WARNING: ELEMENT LABEL 593 HAS BEEN USED MORE THAN ONCE. ONLY THE LAST 
             DEFINITION IS CONSIDERED.
  *ELEMENT, TYPE=C3D8, ELSET=Elset594

 ***WARNING: ELEMENT LABEL 594 HAS BEEN USED MORE THAN ONCE. ONLY THE LAST 
             DEFINITION IS CONSIDERED.
  *ELEMENT, TYPE=C3D8, ELSET=Elset595

 ***WARNING: ELEMENT LABEL 595 HAS BEEN USED MORE THAN ONCE. ONLY THE LAST 
             DEFINITION IS CONSIDERED.
  *ELEMENT, TYPE=C3D8, ELSET=Elset596

 ***WARNING: ELEMENT LABEL 596 HAS BEEN USED MORE THAN ONCE. ONLY THE LAST 
             DEFINITION IS CONSIDERED.
  *ELEMENT, TYPE=C3D8, ELSET=Elset597

 ***WARNING: ELEMENT LABEL 597 HAS BEEN USED MORE THAN ONCE. ONLY THE LAST 
             DEFINITION IS CONSIDERED.
  *ELEMENT, TYPE=C3D8, ELSET=Elset598

 ***WARNING: ELEMENT LABEL 598 HAS BEEN USED MORE THAN ONCE. ONLY THE LAST 
             DEFINITION IS CONSIDERED.
  *ELEMENT, TYPE=C3D8, ELSET=Elset599

 ***WARNING: ELEMENT LABEL 599 HAS BEEN USED MORE THAN ONCE. ONLY THE LAST 
             DEFINITION IS CONSIDERED.
  *ELEMENT, TYPE=C3D8, ELSET=Elset600

 ***WARNING: ELEMENT LABEL 600 HAS BEEN USED MORE THAN ONCE. ONLY THE LAST 
             DEFINITION IS CONSIDERED.
  *ELEMENT, TYPE=C3D8, ELSET=Elset601

 ***WARNING: ELEMENT LABEL 601 HAS BEEN USED MORE THAN ONCE. ONLY THE LAST 
             DEFINITION IS CONSIDERED.
  *ELEMENT, TYPE=C3D8, ELSET=Elset602

 ***WARNING: ELEMENT LABEL 602 HAS BEEN USED MORE THAN ONCE. ONLY THE LAST 
             DEFINITION IS CONSIDERED.
  *ELEMENT, TYPE=C3D8, ELSET=Elset603

 ***WARNING: ELEMENT LABEL 603 HAS BEEN USED MORE THAN ONCE. ONLY THE LAST 
             DEFINITION IS CONSIDERED.
  *ELEMENT, TYPE=C3D8, ELSET=Elset604

 ***WARNING: ELEMENT LABEL 604 HAS BEEN USED MORE THAN ONCE. ONLY THE LAST 
             DEFINITION IS CONSIDERED.
  *ELEMENT, TYPE=C3D8, ELSET=Elset605

 ***WARNING: ELEMENT LABEL 605 HAS BEEN USED MORE THAN ONCE. ONLY THE LAST 
             DEFINITION IS CONSIDERED.
  *ELEMENT, TYPE=C3D8, ELSET=Elset606

 ***WARNING: ELEMENT LABEL 606 HAS BEEN USED MORE THAN ONCE. ONLY THE LAST 
             DEFINITION IS CONSIDERED.
  *ELEMENT, TYPE=C3D8, ELSET=Elset607

 ***WARNING: ELEMENT LABEL 607 HAS BEEN USED MORE THAN ONCE. ONLY THE LAST 
             DEFINITION IS CONSIDERED.
  *ELEMENT, TYPE=C3D8, ELSET=Elset623

 ***WARNING: ELEMENT LABEL 623 HAS BEEN USED MORE THAN ONCE. ONLY THE LAST 
             DEFINITION IS CONSIDERED.
  *ELEMENT, TYPE=C3D8, ELSET=Elset624

 ***WARNING: ELEMENT LABEL 624 HAS BEEN USED MORE THAN ONCE. ONLY THE LAST 
             DEFINITION IS CONSIDERED.
  *ELEMENT, TYPE=C3D8, ELSET=Elset625

 ***WARNING: ELEMENT LABEL 625 HAS BEEN USED MORE THAN ONCE. ONLY THE LAST 
             DEFINITION IS CONSIDERED.
  *ELEMENT, TYPE=C3D8, ELSET=Elset626

 ***WARNING: ELEMENT LABEL 626 HAS BEEN USED MORE THAN ONCE. ONLY THE LAST 
             DEFINITION IS CONSIDERED.
  *ELEMENT, TYPE=C3D8, ELSET=Elset627

 ***WARNING: ELEMENT LABEL 627 HAS BEEN USED MORE THAN ONCE. ONLY THE LAST 
             DEFINITION IS CONSIDERED.
  *ELEMENT, TYPE=C3D8, ELSET=Elset628

 ***WARNING: ELEMENT LABEL 628 HAS BEEN USED MORE THAN ONCE. ONLY THE LAST 
             DEFINITION IS CONSIDERED.
  *ELEMENT, TYPE=C3D8, ELSET=Elset629

 ***WARNING: ELEMENT LABEL 629 HAS BEEN USED MORE THAN ONCE. ONLY THE LAST 
             DEFINITION IS CONSIDERED.
  *ELEMENT, TYPE=C3D8, ELSET=Elset630

 ***WARNING: ELEMENT LABEL 630 HAS BEEN USED MORE THAN ONCE. ONLY THE LAST 
             DEFINITION IS CONSIDERED.
  *ELEMENT, TYPE=C3D8, ELSET=Elset631

 ***WARNING: ELEMENT LABEL 631 HAS BEEN USED MORE THAN ONCE. ONLY THE LAST 
             DEFINITION IS CONSIDERED.
  *ELEMENT, TYPE=C3D8, ELSET=Elset632

 ***WARNING: ELEMENT LABEL 632 HAS BEEN USED MORE THAN ONCE. ONLY THE LAST 
             DEFINITION IS CONSIDERED.
  *ELEMENT, TYPE=C3D8, ELSET=Elset633

 ***WARNING: ELEMENT LABEL 633 HAS BEEN USED MORE THAN ONCE. ONLY THE LAST 
             DEFINITION IS CONSIDERED.
  *ELEMENT, TYPE=C3D8, ELSET=Elset634

 ***WARNING: ELEMENT LABEL 634 HAS BEEN USED MORE THAN ONCE. ONLY THE LAST 
             DEFINITION IS CONSIDERED.
  *ELEMENT, TYPE=C3D8, ELSET=Elset635

 ***WARNING: ELEMENT LABEL 635 HAS BEEN USED MORE THAN ONCE. ONLY THE LAST 
             DEFINITION IS CONSIDERED.
  *ELEMENT, TYPE=C3D8, ELSET=Elset636

 ***WARNING: ELEMENT LABEL 636 HAS BEEN USED MORE THAN ONCE. ONLY THE LAST 
             DEFINITION IS CONSIDERED.
  *ELEMENT, TYPE=C3D8, ELSET=Elset637

 ***WARNING: ELEMENT LABEL 637 HAS BEEN USED MORE THAN ONCE. ONLY THE LAST 
             DEFINITION IS CONSIDERED.
  *ELEMENT, TYPE=C3D8, ELSET=Elset638

 ***WARNING: ELEMENT LABEL 638 HAS BEEN USED MORE THAN ONCE. ONLY THE LAST 
             DEFINITION IS CONSIDERED.
  *ELEMENT, TYPE=C3D8, ELSET=Elset639

 ***WARNING: ELEMENT LABEL 639 HAS BEEN USED MORE THAN ONCE. ONLY THE LAST 
             DEFINITION IS CONSIDERED.
  *ELEMENT, TYPE=C3D8, ELSET=Elset640

 ***WARNING: ELEMENT LABEL 640 HAS BEEN USED MORE THAN ONCE. ONLY THE LAST 
             DEFINITION IS CONSIDERED.
  *ELEMENT, TYPE=C3D8, ELSET=Elset641

 ***WARNING: ELEMENT LABEL 641 HAS BEEN USED MORE THAN ONCE. ONLY THE LAST 
             DEFINITION IS CONSIDERED.
  *ELEMENT, TYPE=C3D8, ELSET=Elset642

 ***WARNING: ELEMENT LABEL 642 HAS BEEN USED MORE THAN ONCE. ONLY THE LAST 
             DEFINITION IS CONSIDERED.
  *ELEMENT, TYPE=C3D8, ELSET=Elset659

 ***WARNING: ELEMENT LABEL 659 HAS BEEN USED MORE THAN ONCE. ONLY THE LAST 
             DEFINITION IS CONSIDERED.
  *ELEMENT, TYPE=C3D8, ELSET=Elset660

 ***WARNING: ELEMENT LABEL 660 HAS BEEN USED MORE THAN ONCE. ONLY THE LAST 
             DEFINITION IS CONSIDERED.
  *ELEMENT, TYPE=C3D8, ELSET=Elset661

 ***WARNING: ELEMENT LABEL 661 HAS BEEN USED MORE THAN ONCE. ONLY THE LAST 
             DEFINITION IS CONSIDERED.
  *ELEMENT, TYPE=C3D8, ELSET=Elset662

 ***WARNING: ELEMENT LABEL 662 HAS BEEN USED MORE THAN ONCE. ONLY THE LAST 
             DEFINITION IS CONSIDERED.
  *ELEMENT, TYPE=C3D8, ELSET=Elset663

 ***WARNING: ELEMENT LABEL 663 HAS BEEN USED MORE THAN ONCE. ONLY THE LAST 
             DEFINITION IS CONSIDERED.
  *ELEMENT, TYPE=C3D8, ELSET=Elset664

 ***WARNING: ELEMENT LABEL 664 HAS BEEN USED MORE THAN ONCE. ONLY THE LAST 
             DEFINITION IS CONSIDERED.
  *ELEMENT, TYPE=C3D8, ELSET=Elset665

 ***WARNING: ELEMENT LABEL 665 HAS BEEN USED MORE THAN ONCE. ONLY THE LAST 
             DEFINITION IS CONSIDERED.
  *ELEMENT, TYPE=C3D8, ELSET=Elset666

 ***WARNING: ELEMENT LABEL 666 HAS BEEN USED MORE THAN ONCE. ONLY THE LAST 
             DEFINITION IS CONSIDERED.
  *ELEMENT, TYPE=C3D8, ELSET=Elset667

 ***WARNING: ELEMENT LABEL 667 HAS BEEN USED MORE THAN ONCE. ONLY THE LAST 
             DEFINITION IS CONSIDERED.
  *ELEMENT, TYPE=C3D8, ELSET=Elset668

 ***WARNING: ELEMENT LABEL 668 HAS BEEN USED MORE THAN ONCE. ONLY THE LAST 
             DEFINITION IS CONSIDERED.
  *ELEMENT, TYPE=C3D8, ELSET=Elset669

 ***WARNING: ELEMENT LABEL 669 HAS BEEN USED MORE THAN ONCE. ONLY THE LAST 
             DEFINITION IS CONSIDERED.
  *ELEMENT, TYPE=C3D8, ELSET=Elset670

 ***WARNING: ELEMENT LABEL 670 HAS BEEN USED MORE THAN ONCE. ONLY THE LAST 
             DEFINITION IS CONSIDERED.
  *ELEMENT, TYPE=C3D8, ELSET=Elset671

 ***WARNING: ELEMENT LABEL 671 HAS BEEN USED MORE THAN ONCE. ONLY THE LAST 
             DEFINITION IS CONSIDERED.
  *ELEMENT, TYPE=C3D8, ELSET=Elset672

 ***WARNING: ELEMENT LABEL 672 HAS BEEN USED MORE THAN ONCE. ONLY THE LAST 
             DEFINITION IS CONSIDERED.
  *ELEMENT, TYPE=C3D8, ELSET=Elset673

 ***WARNING: ELEMENT LABEL 673 HAS BEEN USED MORE THAN ONCE. ONLY THE LAST 
             DEFINITION IS CONSIDERED.
  *ELEMENT, TYPE=C3D8, ELSET=Elset674

 ***WARNING: ELEMENT LABEL 674 HAS BEEN USED MORE THAN ONCE. ONLY THE LAST 
             DEFINITION IS CONSIDERED.
  *ELEMENT, TYPE=C3D8, ELSET=Elset675

 ***WARNING: ELEMENT LABEL 675 HAS BEEN USED MORE THAN ONCE. ONLY THE LAST 
             DEFINITION IS CONSIDERED.
  *ELEMENT, TYPE=C3D8, ELSET=Elset676

 ***WARNING: ELEMENT LABEL 676 HAS BEEN USED MORE THAN ONCE. ONLY THE LAST 
             DEFINITION IS CONSIDERED.
  *ELEMENT, TYPE=C3D8, ELSET=Elset677

 ***WARNING: ELEMENT LABEL 677 HAS BEEN USED MORE THAN ONCE. ONLY THE LAST 
             DEFINITION IS CONSIDERED.
  *ELEMENT, TYPE=C3D8, ELSET=Elset678

 ***WARNING: ELEMENT LABEL 678 HAS BEEN USED MORE THAN ONCE. ONLY THE LAST 
             DEFINITION IS CONSIDERED.
  *ELEMENT, TYPE=C3D8, ELSET=Elset695

 ***WARNING: ELEMENT LABEL 695 HAS BEEN USED MORE THAN ONCE. ONLY THE LAST 
             DEFINITION IS CONSIDERED.
  *ELEMENT, TYPE=C3D8, ELSET=Elset696

 ***WARNING: ELEMENT LABEL 696 HAS BEEN USED MORE THAN ONCE. ONLY THE LAST 
             DEFINITION IS CONSIDERED.
  *ELEMENT, TYPE=C3D8, ELSET=Elset697

 ***WARNING: ELEMENT LABEL 697 HAS BEEN USED MORE THAN ONCE. ONLY THE LAST 
             DEFINITION IS CONSIDERED.
  *ELEMENT, TYPE=C3D8, ELSET=Elset698

 ***WARNING: ELEMENT LABEL 698 HAS BEEN USED MORE THAN ONCE. ONLY THE LAST 
             DEFINITION IS CONSIDERED.
  *ELEMENT, TYPE=C3D8, ELSET=Elset699

 ***WARNING: ELEMENT LABEL 699 HAS BEEN USED MORE THAN ONCE. ONLY THE LAST 
             DEFINITION IS CONSIDERED.
  *ELEMENT, TYPE=C3D8, ELSET=Elset700

 ***WARNING: ELEMENT LABEL 700 HAS BEEN USED MORE THAN ONCE. ONLY THE LAST 
             DEFINITION IS CONSIDERED.
  *ELEMENT, TYPE=C3D8, ELSET=Elset701

 ***WARNING: ELEMENT LABEL 701 HAS BEEN USED MORE THAN ONCE. ONLY THE LAST 
             DEFINITION IS CONSIDERED.
  *ELEMENT, TYPE=C3D8, ELSET=Elset702

 ***WARNING: ELEMENT LABEL 702 HAS BEEN USED MORE THAN ONCE. ONLY THE LAST 
             DEFINITION IS CONSIDERED.
  *ELEMENT, TYPE=C3D8, ELSET=Elset703

 ***WARNING: ELEMENT LABEL 703 HAS BEEN USED MORE THAN ONCE. ONLY THE LAST 
             DEFINITION IS CONSIDERED.
  *ELEMENT, TYPE=C3D8, ELSET=Elset704

 ***WARNING: ELEMENT LABEL 704 HAS BEEN USED MORE THAN ONCE. ONLY THE LAST 
             DEFINITION IS CONSIDERED.
  *ELEMENT, TYPE=C3D8, ELSET=Elset705

 ***WARNING: ELEMENT LABEL 705 HAS BEEN USED MORE THAN ONCE. ONLY THE LAST 
             DEFINITION IS CONSIDERED.
  *ELEMENT, TYPE=C3D8, ELSET=Elset706

 ***WARNING: ELEMENT LABEL 706 HAS BEEN USED MORE THAN ONCE. ONLY THE LAST 
             DEFINITION IS CONSIDERED.
  *ELEMENT, TYPE=C3D8, ELSET=Elset707

 ***WARNING: ELEMENT LABEL 707 HAS BEEN USED MORE THAN ONCE. ONLY THE LAST 
             DEFINITION IS CONSIDERED.
  *ELEMENT, TYPE=C3D8, ELSET=Elset708

 ***WARNING: ELEMENT LABEL 708 HAS BEEN USED MORE THAN ONCE. ONLY THE LAST 
             DEFINITION IS CONSIDERED.
  *ELEMENT, TYPE=C3D8, ELSET=Elset709

 ***WARNING: ELEMENT LABEL 709 HAS BEEN USED MORE THAN ONCE. ONLY THE LAST 
             DEFINITION IS CONSIDERED.
  *ELEMENT, TYPE=C3D8, ELSET=Elset710

 ***WARNING: ELEMENT LABEL 710 HAS BEEN USED MORE THAN ONCE. ONLY THE LAST 
             DEFINITION IS CONSIDERED.
  *ELEMENT, TYPE=C3D8, ELSET=Elset711

 ***WARNING: ELEMENT LABEL 711 HAS BEEN USED MORE THAN ONCE. ONLY THE LAST 
             DEFINITION IS CONSIDERED.
  *ELEMENT, TYPE=C3D8, ELSET=Elset712

 ***WARNING: ELEMENT LABEL 712 HAS BEEN USED MORE THAN ONCE. ONLY THE LAST 
             DEFINITION IS CONSIDERED.
  *ELEMENT, TYPE=C3D8, ELSET=Elset713

 ***WARNING: ELEMENT LABEL 713 HAS BEEN USED MORE THAN ONCE. ONLY THE LAST 
             DEFINITION IS CONSIDERED.
  *ELEMENT, TYPE=C3D8, ELSET=Elset732

 ***WARNING: ELEMENT LABEL 732 HAS BEEN USED MORE THAN ONCE. ONLY THE LAST 
             DEFINITION IS CONSIDERED.
  *ELEMENT, TYPE=C3D8, ELSET=Elset733

 ***WARNING: ELEMENT LABEL 733 HAS BEEN USED MORE THAN ONCE. ONLY THE LAST 
             DEFINITION IS CONSIDERED.
  *ELEMENT, TYPE=C3D8, ELSET=Elset734

 ***WARNING: ELEMENT LABEL 734 HAS BEEN USED MORE THAN ONCE. ONLY THE LAST 
             DEFINITION IS CONSIDERED.
  *ELEMENT, TYPE=C3D8, ELSET=Elset735

 ***WARNING: ELEMENT LABEL 735 HAS BEEN USED MORE THAN ONCE. ONLY THE LAST 
             DEFINITION IS CONSIDERED.
  *ELEMENT, TYPE=C3D8, ELSET=Elset736

 ***WARNING: ELEMENT LABEL 736 HAS BEEN USED MORE THAN ONCE. ONLY THE LAST 
             DEFINITION IS CONSIDERED.
  *ELEMENT, TYPE=C3D8, ELSET=Elset737

 ***WARNING: ELEMENT LABEL 737 HAS BEEN USED MORE THAN ONCE. ONLY THE LAST 
             DEFINITION IS CONSIDERED.
  *ELEMENT, TYPE=C3D8, ELSET=Elset738

 ***WARNING: ELEMENT LABEL 738 HAS BEEN USED MORE THAN ONCE. ONLY THE LAST 
             DEFINITION IS CONSIDERED.
  *ELEMENT, TYPE=C3D8, ELSET=Elset739

 ***WARNING: ELEMENT LABEL 739 HAS BEEN USED MORE THAN ONCE. ONLY THE LAST 
             DEFINITION IS CONSIDERED.
  *ELEMENT, TYPE=C3D8, ELSET=Elset740

 ***WARNING: ELEMENT LABEL 740 HAS BEEN USED MORE THAN ONCE. ONLY THE LAST 
             DEFINITION IS CONSIDERED.
  *ELEMENT, TYPE=C3D8, ELSET=Elset741

 ***WARNING: ELEMENT LABEL 741 HAS BEEN USED MORE THAN ONCE. ONLY THE LAST 
             DEFINITION IS CONSIDERED.
  *ELEMENT, TYPE=C3D8, ELSET=Elset742

 ***WARNING: ELEMENT LABEL 742 HAS BEEN USED MORE THAN ONCE. ONLY THE LAST 
             DEFINITION IS CONSIDERED.
  *ELEMENT, TYPE=C3D8, ELSET=Elset743

 ***WARNING: ELEMENT LABEL 743 HAS BEEN USED MORE THAN ONCE. ONLY THE LAST 
             DEFINITION IS CONSIDERED.
  *ELEMENT, TYPE=C3D8, ELSET=Elset744

 ***WARNING: ELEMENT LABEL 744 HAS BEEN USED MORE THAN ONCE. ONLY THE LAST 
             DEFINITION IS CONSIDERED.
  *ELEMENT, TYPE=C3D8, ELSET=Elset745

 ***WARNING: ELEMENT LABEL 745 HAS BEEN USED MORE THAN ONCE. ONLY THE LAST 
             DEFINITION IS CONSIDERED.
  *ELEMENT, TYPE=C3D8, ELSET=Elset746

 ***WARNING: ELEMENT LABEL 746 HAS BEEN USED MORE THAN ONCE. ONLY THE LAST 
             DEFINITION IS CONSIDERED.
  *ELEMENT, TYPE=C3D8, ELSET=Elset747

 ***WARNING: ELEMENT LABEL 747 HAS BEEN USED MORE THAN ONCE. ONLY THE LAST 
             DEFINITION IS CONSIDERED.
  *ELEMENT, TYPE=C3D8, ELSET=Elset748

 ***WARNING: ELEMENT LABEL 748 HAS BEEN USED MORE THAN ONCE. ONLY THE LAST 
             DEFINITION IS CONSIDERED.
  *ELEMENT, TYPE=C3D8, ELSET=Elset749

 ***WARNING: ELEMENT LABEL 749 HAS BEEN USED MORE THAN ONCE. ONLY THE LAST 
             DEFINITION IS CONSIDERED.
  *ELEMENT, TYPE=C3D8, ELSET=Elset768

 ***WARNING: ELEMENT LABEL 768 HAS BEEN USED MORE THAN ONCE. ONLY THE LAST 
             DEFINITION IS CONSIDERED.
  *ELEMENT, TYPE=C3D8, ELSET=Elset769

 ***WARNING: ELEMENT LABEL 769 HAS BEEN USED MORE THAN ONCE. ONLY THE LAST 
             DEFINITION IS CONSIDERED.
  *ELEMENT, TYPE=C3D8, ELSET=Elset770

 ***WARNING: ELEMENT LABEL 770 HAS BEEN USED MORE THAN ONCE. ONLY THE LAST 
             DEFINITION IS CONSIDERED.
  *ELEMENT, TYPE=C3D8, ELSET=Elset771

 ***WARNING: ELEMENT LABEL 771 HAS BEEN USED MORE THAN ONCE. ONLY THE LAST 
             DEFINITION IS CONSIDERED.
  *ELEMENT, TYPE=C3D8, ELSET=Elset772

 ***WARNING: ELEMENT LABEL 772 HAS BEEN USED MORE THAN ONCE. ONLY THE LAST 
             DEFINITION IS CONSIDERED.
  *ELEMENT, TYPE=C3D8, ELSET=Elset773

 ***WARNING: ELEMENT LABEL 773 HAS BEEN USED MORE THAN ONCE. ONLY THE LAST 
             DEFINITION IS CONSIDERED.
  *ELEMENT, TYPE=C3D8, ELSET=Elset774

 ***WARNING: ELEMENT LABEL 774 HAS BEEN USED MORE THAN ONCE. ONLY THE LAST 
             DEFINITION IS CONSIDERED.
  *ELEMENT, TYPE=C3D8, ELSET=Elset775

 ***WARNING: ELEMENT LABEL 775 HAS BEEN USED MORE THAN ONCE. ONLY THE LAST 
             DEFINITION IS CONSIDERED.
  *ELEMENT, TYPE=C3D8, ELSET=Elset776

 ***WARNING: ELEMENT LABEL 776 HAS BEEN USED MORE THAN ONCE. ONLY THE LAST 
             DEFINITION IS CONSIDERED.
  *ELEMENT, TYPE=C3D8, ELSET=Elset777

 ***WARNING: ELEMENT LABEL 777 HAS BEEN USED MORE THAN ONCE. ONLY THE LAST 
             DEFINITION IS CONSIDERED.
  *ELEMENT, TYPE=C3D8, ELSET=Elset778

 ***WARNING: ELEMENT LABEL 778 HAS BEEN USED MORE THAN ONCE. ONLY THE LAST 
             DEFINITION IS CONSIDERED.
  *ELEMENT, TYPE=C3D8, ELSET=Elset779

 ***WARNING: ELEMENT LABEL 779 HAS BEEN USED MORE THAN ONCE. ONLY THE LAST 
             DEFINITION IS CONSIDERED.
  *ELEMENT, TYPE=C3D8, ELSET=Elset780

 ***WARNING: ELEMENT LABEL 780 HAS BEEN USED MORE THAN ONCE. ONLY THE LAST 
             DEFINITION IS CONSIDERED.
  *ELEMENT, TYPE=C3D8, ELSET=Elset781

 ***WARNING: ELEMENT LABEL 781 HAS BEEN USED MORE THAN ONCE. ONLY THE LAST 
             DEFINITION IS CONSIDERED.
  *ELEMENT, TYPE=C3D8, ELSET=Elset782

 ***WARNING: ELEMENT LABEL 782 HAS BEEN USED MORE THAN ONCE. ONLY THE LAST 
             DEFINITION IS CONSIDERED.
  *ELEMENT, TYPE=C3D8, ELSET=Elset783

 ***WARNING: ELEMENT LABEL 783 HAS BEEN USED MORE THAN ONCE. ONLY THE LAST 
             DEFINITION IS CONSIDERED.
  *ELEMENT, TYPE=C3D8, ELSET=Elset784

 ***WARNING: ELEMENT LABEL 784 HAS BEEN USED MORE THAN ONCE. ONLY THE LAST 
             DEFINITION IS CONSIDERED.
  *ELEMENT, TYPE=C3D8, ELSET=Elset805

 ***WARNING: ELEMENT LABEL 805 HAS BEEN USED MORE THAN ONCE. ONLY THE LAST 
             DEFINITION IS CONSIDERED.
  *ELEMENT, TYPE=C3D8, ELSET=Elset806

 ***WARNING: ELEMENT LABEL 806 HAS BEEN USED MORE THAN ONCE. ONLY THE LAST 
             DEFINITION IS CONSIDERED.
  *ELEMENT, TYPE=C3D8, ELSET=Elset807

 ***WARNING: ELEMENT LABEL 807 HAS BEEN USED MORE THAN ONCE. ONLY THE LAST 
             DEFINITION IS CONSIDERED.
  *ELEMENT, TYPE=C3D8, ELSET=Elset808

 ***WARNING: ELEMENT LABEL 808 HAS BEEN USED MORE THAN ONCE. ONLY THE LAST 
             DEFINITION IS CONSIDERED.
  *ELEMENT, TYPE=C3D8, ELSET=Elset809

 ***WARNING: ELEMENT LABEL 809 HAS BEEN USED MORE THAN ONCE. ONLY THE LAST 
             DEFINITION IS CONSIDERED.
  *ELEMENT, TYPE=C3D8, ELSET=Elset810

 ***WARNING: ELEMENT LABEL 810 HAS BEEN USED MORE THAN ONCE. ONLY THE LAST 
             DEFINITION IS CONSIDERED.
  *ELEMENT, TYPE=C3D8, ELSET=Elset811

 ***WARNING: ELEMENT LABEL 811 HAS BEEN USED MORE THAN ONCE. ONLY THE LAST 
             DEFINITION IS CONSIDERED.
  *ELEMENT, TYPE=C3D8, ELSET=Elset812

 ***WARNING: ELEMENT LABEL 812 HAS BEEN USED MORE THAN ONCE. ONLY THE LAST 
             DEFINITION IS CONSIDERED.
  *ELEMENT, TYPE=C3D8, ELSET=Elset813

 ***WARNING: ELEMENT LABEL 813 HAS BEEN USED MORE THAN ONCE. ONLY THE LAST 
             DEFINITION IS CONSIDERED.
  *ELEMENT, TYPE=C3D8, ELSET=Elset814

 ***WARNING: ELEMENT LABEL 814 HAS BEEN USED MORE THAN ONCE. ONLY THE LAST 
             DEFINITION IS CONSIDERED.
  *ELEMENT, TYPE=C3D8, ELSET=Elset815

 ***WARNING: ELEMENT LABEL 815 HAS BEEN USED MORE THAN ONCE. ONLY THE LAST 
             DEFINITION IS CONSIDERED.
  *ELEMENT, TYPE=C3D8, ELSET=Elset816

 ***WARNING: ELEMENT LABEL 816 HAS BEEN USED MORE THAN ONCE. ONLY THE LAST 
             DEFINITION IS CONSIDERED.
  *ELEMENT, TYPE=C3D8, ELSET=Elset817

 ***WARNING: ELEMENT LABEL 817 HAS BEEN USED MORE THAN ONCE. ONLY THE LAST 
             DEFINITION IS CONSIDERED.
  *ELEMENT, TYPE=C3D8, ELSET=Elset818

 ***WARNING: ELEMENT LABEL 818 HAS BEEN USED MORE THAN ONCE. ONLY THE LAST 
             DEFINITION IS CONSIDERED.
  *ELEMENT, TYPE=C3D8, ELSET=Elset819

 ***WARNING: ELEMENT LABEL 819 HAS BEEN USED MORE THAN ONCE. ONLY THE LAST 
             DEFINITION IS CONSIDERED.
  *ELEMENT, TYPE=C3D8, ELSET=Elset820

 ***WARNING: ELEMENT LABEL 820 HAS BEEN USED MORE THAN ONCE. ONLY THE LAST 
             DEFINITION IS CONSIDERED.
  *ELEMENT, TYPE=C3D8, ELSET=Elset841

 ***WARNING: ELEMENT LABEL 841 HAS BEEN USED MORE THAN ONCE. ONLY THE LAST 
             DEFINITION IS CONSIDERED.
  *ELEMENT, TYPE=C3D8, ELSET=Elset842

 ***WARNING: ELEMENT LABEL 842 HAS BEEN USED MORE THAN ONCE. ONLY THE LAST 
             DEFINITION IS CONSIDERED.
  *ELEMENT, TYPE=C3D8, ELSET=Elset843

 ***WARNING: ELEMENT LABEL 843 HAS BEEN USED MORE THAN ONCE. ONLY THE LAST 
             DEFINITION IS CONSIDERED.
  *ELEMENT, TYPE=C3D8, ELSET=Elset844

 ***WARNING: ELEMENT LABEL 844 HAS BEEN USED MORE THAN ONCE. ONLY THE LAST 
             DEFINITION IS CONSIDERED.
  *ELEMENT, TYPE=C3D8, ELSET=Elset845

 ***WARNING: ELEMENT LABEL 845 HAS BEEN USED MORE THAN ONCE. ONLY THE LAST 
             DEFINITION IS CONSIDERED.
  *ELEMENT, TYPE=C3D8, ELSET=Elset846

 ***WARNING: ELEMENT LABEL 846 HAS BEEN USED MORE THAN ONCE. ONLY THE LAST 
             DEFINITION IS CONSIDERED.
  *ELEMENT, TYPE=C3D8, ELSET=Elset847

 ***WARNING: ELEMENT LABEL 847 HAS BEEN USED MORE THAN ONCE. ONLY THE LAST 
             DEFINITION IS CONSIDERED.
  *ELEMENT, TYPE=C3D8, ELSET=Elset848

 ***WARNING: ELEMENT LABEL 848 HAS BEEN USED MORE THAN ONCE. ONLY THE LAST 
             DEFINITION IS CONSIDERED.
  *ELEMENT, TYPE=C3D8, ELSET=Elset849

 ***WARNING: ELEMENT LABEL 849 HAS BEEN USED MORE THAN ONCE. ONLY THE LAST 
             DEFINITION IS CONSIDERED.
  *ELEMENT, TYPE=C3D8, ELSET=Elset850

 ***WARNING: ELEMENT LABEL 850 HAS BEEN USED MORE THAN ONCE. ONLY THE LAST 
             DEFINITION IS CONSIDERED.
  *ELEMENT, TYPE=C3D8, ELSET=Elset851

 ***WARNING: ELEMENT LABEL 851 HAS BEEN USED MORE THAN ONCE. ONLY THE LAST 
             DEFINITION IS CONSIDERED.
  *ELEMENT, TYPE=C3D8, ELSET=Elset852

 ***WARNING: ELEMENT LABEL 852 HAS BEEN USED MORE THAN ONCE. ONLY THE LAST 
             DEFINITION IS CONSIDERED.
  *ELEMENT, TYPE=C3D8, ELSET=Elset853

 ***WARNING: ELEMENT LABEL 853 HAS BEEN USED MORE THAN ONCE. ONLY THE LAST 
             DEFINITION IS CONSIDERED.
  *ELEMENT, TYPE=C3D8, ELSET=Elset854

 ***WARNING: ELEMENT LABEL 854 HAS BEEN USED MORE THAN ONCE. ONLY THE LAST 
             DEFINITION IS CONSIDERED.
  *ELEMENT, TYPE=C3D8, ELSET=Elset855

 ***WARNING: ELEMENT LABEL 855 HAS BEEN USED MORE THAN ONCE. ONLY THE LAST 
             DEFINITION IS CONSIDERED.
  *ELEMENT, TYPE=C3D8, ELSET=Elset878

 ***WARNING: ELEMENT LABEL 878 HAS BEEN USED MORE THAN ONCE. ONLY THE LAST 
             DEFINITION IS CONSIDERED.
  *ELEMENT, TYPE=C3D8, ELSET=Elset879

 ***WARNING: ELEMENT LABEL 879 HAS BEEN USED MORE THAN ONCE. ONLY THE LAST 
             DEFINITION IS CONSIDERED.
  *ELEMENT, TYPE=C3D8, ELSET=Elset880

 ***WARNING: ELEMENT LABEL 880 HAS BEEN USED MORE THAN ONCE. ONLY THE LAST 
             DEFINITION IS CONSIDERED.
  *ELEMENT, TYPE=C3D8, ELSET=Elset881

 ***WARNING: ELEMENT LABEL 881 HAS BEEN USED MORE THAN ONCE. ONLY THE LAST 
             DEFINITION IS CONSIDERED.
  *ELEMENT, TYPE=C3D8, ELSET=Elset882

 ***WARNING: ELEMENT LABEL 882 HAS BEEN USED MORE THAN ONCE. ONLY THE LAST 
             DEFINITION IS CONSIDERED.
  *ELEMENT, TYPE=C3D8, ELSET=Elset883

 ***WARNING: ELEMENT LABEL 883 HAS BEEN USED MORE THAN ONCE. ONLY THE LAST 
             DEFINITION IS CONSIDERED.
  *ELEMENT, TYPE=C3D8, ELSET=Elset884

 ***WARNING: ELEMENT LABEL 884 HAS BEEN USED MORE THAN ONCE. ONLY THE LAST 
             DEFINITION IS CONSIDERED.
  *ELEMENT, TYPE=C3D8, ELSET=Elset885

 ***WARNING: ELEMENT LABEL 885 HAS BEEN USED MORE THAN ONCE. ONLY THE LAST 
             DEFINITION IS CONSIDERED.
  *ELEMENT, TYPE=C3D8, ELSET=Elset886

 ***WARNING: ELEMENT LABEL 886 HAS BEEN USED MORE THAN ONCE. ONLY THE LAST 
             DEFINITION IS CONSIDERED.
  *ELEMENT, TYPE=C3D8, ELSET=Elset887

 ***WARNING: ELEMENT LABEL 887 HAS BEEN USED MORE THAN ONCE. ONLY THE LAST 
             DEFINITION IS CONSIDERED.
  *ELEMENT, TYPE=C3D8, ELSET=Elset888

 ***WARNING: ELEMENT LABEL 888 HAS BEEN USED MORE THAN ONCE. ONLY THE LAST 
             DEFINITION IS CONSIDERED.
  *ELEMENT, TYPE=C3D8, ELSET=Elset889

 ***WARNING: ELEMENT LABEL 889 HAS BEEN USED MORE THAN ONCE. ONLY THE LAST 
             DEFINITION IS CONSIDERED.
  *ELEMENT, TYPE=C3D8, ELSET=Elset890

 ***WARNING: ELEMENT LABEL 890 HAS BEEN USED MORE THAN ONCE. ONLY THE LAST 
             DEFINITION IS CONSIDERED.
  *ELEMENT, TYPE=C3D8, ELSET=Elset915

 ***WARNING: ELEMENT LABEL 915 HAS BEEN USED MORE THAN ONCE. ONLY THE LAST 
             DEFINITION IS CONSIDERED.
  *ELEMENT, TYPE=C3D8, ELSET=Elset916

 ***WARNING: ELEMENT LABEL 916 HAS BEEN USED MORE THAN ONCE. ONLY THE LAST 
             DEFINITION IS CONSIDERED.
  *ELEMENT, TYPE=C3D8, ELSET=Elset917

 ***WARNING: ELEMENT LABEL 917 HAS BEEN USED MORE THAN ONCE. ONLY THE LAST 
             DEFINITION IS CONSIDERED.
  *ELEMENT, TYPE=C3D8, ELSET=Elset918

 ***WARNING: ELEMENT LABEL 918 HAS BEEN USED MORE THAN ONCE. ONLY THE LAST 
             DEFINITION IS CONSIDERED.
  *ELEMENT, TYPE=C3D8, ELSET=Elset919

 ***WARNING: ELEMENT LABEL 919 HAS BEEN USED MORE THAN ONCE. ONLY THE LAST 
             DEFINITION IS CONSIDERED.
  *ELEMENT, TYPE=C3D8, ELSET=Elset920

 ***WARNING: ELEMENT LABEL 920 HAS BEEN USED MORE THAN ONCE. ONLY THE LAST 
             DEFINITION IS CONSIDERED.
  *ELEMENT, TYPE=C3D8, ELSET=Elset921

 ***WARNING: ELEMENT LABEL 921 HAS BEEN USED MORE THAN ONCE. ONLY THE LAST 
             DEFINITION IS CONSIDERED.
  *ELEMENT, TYPE=C3D8, ELSET=Elset922

 ***WARNING: ELEMENT LABEL 922 HAS BEEN USED MORE THAN ONCE. ONLY THE LAST 
             DEFINITION IS CONSIDERED.
  *ELEMENT, TYPE=C3D8, ELSET=Elset923

 ***WARNING: ELEMENT LABEL 923 HAS BEEN USED MORE THAN ONCE. ONLY THE LAST 
             DEFINITION IS CONSIDERED.
  *NSET, NSET=TOPNODES
  *NSET, NSET=BOTNODES
  *NODE
  *NSET, NSET=REF_NODE
  *INCLUDE, input=/home/ms20s284/FRACTIB/04_Results/03_hFE/437_R_90_F/Steps/Step01.inp

  *** INPUT DATA IS READ FROM FILE /home/ms20s284/FRACTIB/04_Results/03_hFE/437_R_90_F/Steps/Step01.inp                                                                                                                                                                                           

  *INCLUDE, input=/home/ms20s284/FRACTIB/04_Results/03_hFE/437_R_90_F/Steps/Step02.inp

  *** INPUT DATA IS READ FROM FILE /home/ms20s284/FRACTIB/04_Results/03_hFE/437_R_90_F/Steps/Step02.inp                                                                                                                                                                                           

  *INCLUDE, input=/home/ms20s284/FRACTIB/04_Results/03_hFE/437_R_90_F/Steps/Step03.inp

  *** INPUT DATA IS READ FROM FILE /home/ms20s284/FRACTIB/04_Results/03_hFE/437_R_90_F/Steps/Step03.inp                                                                                                                                                                                           

  *INCLUDE, input=/home/ms20s284/FRACTIB/04_Results/03_hFE/437_R_90_F/Steps/Step04.inp

  *** INPUT DATA IS READ FROM FILE /home/ms20s284/FRACTIB/04_Results/03_hFE/437_R_90_F/Steps/Step04.inp                                                                                                                                                                                           

  *INCLUDE, input=/home/ms20s284/FRACTIB/04_Results/03_hFE/437_R_90_F/Steps/Step05.inp

  *** INPUT DATA IS READ FROM FILE /home/ms20s284/FRACTIB/04_Results/03_hFE/437_R_90_F/Steps/Step05.inp                                                                                                                                                                                           

  *INCLUDE, input=/home/ms20s284/FRACTIB/04_Results/03_hFE/437_R_90_F/Steps/Step06.inp

  *** INPUT DATA IS READ FROM FILE /home/ms20s284/FRACTIB/04_Results/03_hFE/437_R_90_F/Steps/Step06.inp                                                                                                                                                                                           

  *INCLUDE, input=/home/ms20s284/FRACTIB/04_Results/03_hFE/437_R_90_F/Steps/Step07.inp

  *** INPUT DATA IS READ FROM FILE /home/ms20s284/FRACTIB/04_Results/03_hFE/437_R_90_F/Steps/Step07.inp                                                                                                                                                                                           

  *INCLUDE, input=/home/ms20s284/FRACTIB/04_Results/03_hFE/437_R_90_F/Steps/Step08.inp

  *** INPUT DATA IS READ FROM FILE /home/ms20s284/FRACTIB/04_Results/03_hFE/437_R_90_F/Steps/Step08.inp                                                                                                                                                                                           

  *INCLUDE, input=/home/ms20s284/FRACTIB/04_Results/03_hFE/437_R_90_F/Steps/Step09.inp

  *** INPUT DATA IS READ FROM FILE /home/ms20s284/FRACTIB/04_Results/03_hFE/437_R_90_F/Steps/Step09.inp                                                                                                                                                                                           

  *INCLUDE, input=/home/ms20s284/FRACTIB/04_Results/03_hFE/437_R_90_F/Steps/Step10.inp

  *** INPUT DATA IS READ FROM FILE /home/ms20s284/FRACTIB/04_Results/03_hFE/437_R_90_F/Steps/Step10.inp                                                                                                                                                                                           

  *MATERIAL, NAME=Mat196
  *USER MATERIAL, CONSTANTS=7, UNSYMM, TYPE=MECHANICAL
  *DEPVAR
  *MATERIAL, NAME=Mat197
  *USER MATERIAL, CONSTANTS=7, UNSYMM, TYPE=MECHANICAL
  *DEPVAR
  *MATERIAL, NAME=Mat198
  *USER MATERIAL, CONSTANTS=7, UNSYMM, TYPE=MECHANICAL
  *DEPVAR
  *MATERIAL, NAME=Mat199
  *USER MATERIAL, CONSTANTS=7, UNSYMM, TYPE=MECHANICAL
  *DEPVAR
  *MATERIAL, NAME=Mat200
  *USER MATERIAL, CONSTANTS=7, UNSYMM, TYPE=MECHANICAL
  *DEPVAR
  *MATERIAL, NAME=Mat229
  *USER MATERIAL, CONSTANTS=7, UNSYMM, TYPE=MECHANICAL
  *DEPVAR
  *MATERIAL, NAME=Mat230
  *USER MATERIAL, CONSTANTS=7, UNSYMM, TYPE=MECHANICAL
  *DEPVAR
  *MATERIAL, NAME=Mat231
  *USER MATERIAL, CONSTANTS=7, UNSYMM, TYPE=MECHANICAL
  *DEPVAR
  *MATERIAL, NAME=Mat232
  *USER MATERIAL, CONSTANTS=7, UNSYMM, TYPE=MECHANICAL
  *DEPVAR
  *MATERIAL, NAME=Mat233
  *USER MATERIAL, CONSTANTS=7, UNSYMM, TYPE=MECHANICAL
  *DEPVAR
  *MATERIAL, NAME=Mat234
  *USER MATERIAL, CONSTANTS=7, UNSYMM, TYPE=MECHANICAL
  *DEPVAR
  *MATERIAL, NAME=Mat235
  *USER MATERIAL, CONSTANTS=7, UNSYMM, TYPE=MECHANICAL
  *DEPVAR
  *MATERIAL, NAME=Mat236
  *USER MATERIAL, CONSTANTS=7, UNSYMM, TYPE=MECHANICAL
  *DEPVAR
  *MATERIAL, NAME=Mat237
  *USER MATERIAL, CONSTANTS=7, UNSYMM, TYPE=MECHANICAL
  *DEPVAR
  *MATERIAL, NAME=Mat238
  *USER MATERIAL, CONSTANTS=7, UNSYMM, TYPE=MECHANICAL
  *DEPVAR
  *MATERIAL, NAME=Mat239
  *USER MATERIAL, CONSTANTS=7, UNSYMM, TYPE=MECHANICAL
  *DEPVAR
  *MATERIAL, NAME=Mat240
  *USER MATERIAL, CONSTANTS=7, UNSYMM, TYPE=MECHANICAL
  *DEPVAR
  *MATERIAL, NAME=Mat264
  *USER MATERIAL, CONSTANTS=7, UNSYMM, TYPE=MECHANICAL
  *DEPVAR
  *MATERIAL, NAME=Mat265
  *USER MATERIAL, CONSTANTS=7, UNSYMM, TYPE=MECHANICAL
  *DEPVAR
  *MATERIAL, NAME=Mat266
  *USER MATERIAL, CONSTANTS=7, UNSYMM, TYPE=MECHANICAL
  *DEPVAR
  *MATERIAL, NAME=Mat267
  *USER MATERIAL, CONSTANTS=7, UNSYMM, TYPE=MECHANICAL
  *DEPVAR
  *MATERIAL, NAME=Mat268
  *USER MATERIAL, CONSTANTS=7, UNSYMM, TYPE=MECHANICAL
  *DEPVAR
  *MATERIAL, NAME=Mat269
  *USER MATERIAL, CONSTANTS=7, UNSYMM, TYPE=MECHANICAL
  *DEPVAR
  *MATERIAL, NAME=Mat270
  *USER MATERIAL, CONSTANTS=7, UNSYMM, TYPE=MECHANICAL
  *DEPVAR
  *MATERIAL, NAME=Mat271
  *USER MATERIAL, CONSTANTS=7, UNSYMM, TYPE=MECHANICAL
  *DEPVAR
  *MATERIAL, NAME=Mat272
  *USER MATERIAL, CONSTANTS=7, UNSYMM, TYPE=MECHANICAL
  *DEPVAR
  *MATERIAL, NAME=Mat273
  *USER MATERIAL, CONSTANTS=7, UNSYMM, TYPE=MECHANICAL
  *DEPVAR
  *MATERIAL, NAME=Mat274
  *USER MATERIAL, CONSTANTS=7, UNSYMM, TYPE=MECHANICAL
  *DEPVAR
  *MATERIAL, NAME=Mat275
  *USER MATERIAL, CONSTANTS=7, UNSYMM, TYPE=MECHANICAL
  *DEPVAR
  *MATERIAL, NAME=Mat276
  *USER MATERIAL, CONSTANTS=7, UNSYMM, TYPE=MECHANICAL
  *DEPVAR
  *MATERIAL, NAME=Mat277
  *USER MATERIAL, CONSTANTS=7, UNSYMM, TYPE=MECHANICAL
  *DEPVAR
  *MATERIAL, NAME=Mat278
  *USER MATERIAL, CONSTANTS=7, UNSYMM, TYPE=MECHANICAL
  *DEPVAR
  *MATERIAL, NAME=Mat279
  *USER MATERIAL, CONSTANTS=7, UNSYMM, TYPE=MECHANICAL
  *DEPVAR
  *MATERIAL, NAME=Mat300
  *USER MATERIAL, CONSTANTS=7, UNSYMM, TYPE=MECHANICAL
  *DEPVAR
  *MATERIAL, NAME=Mat301
  *USER MATERIAL, CONSTANTS=7, UNSYMM, TYPE=MECHANICAL
  *DEPVAR
  *MATERIAL, NAME=Mat302
  *USER MATERIAL, CONSTANTS=7, UNSYMM, TYPE=MECHANICAL
  *DEPVAR
  *MATERIAL, NAME=Mat303
  *USER MATERIAL, CONSTANTS=7, UNSYMM, TYPE=MECHANICAL
  *DEPVAR
  *MATERIAL, NAME=Mat304
  *USER MATERIAL, CONSTANTS=7, UNSYMM, TYPE=MECHANICAL
  *DEPVAR
  *MATERIAL, NAME=Mat305
  *USER MATERIAL, CONSTANTS=7, UNSYMM, TYPE=MECHANICAL
  *DEPVAR
  *MATERIAL, NAME=Mat306
  *USER MATERIAL, CONSTANTS=7, UNSYMM, TYPE=MECHANICAL
  *DEPVAR
  *MATERIAL, NAME=Mat307
  *USER MATERIAL, CONSTANTS=7, UNSYMM, TYPE=MECHANICAL
  *DEPVAR
  *MATERIAL, NAME=Mat308
  *USER MATERIAL, CONSTANTS=7, UNSYMM, TYPE=MECHANICAL
  *DEPVAR
  *MATERIAL, NAME=Mat309
  *USER MATERIAL, CONSTANTS=7, UNSYMM, TYPE=MECHANICAL
  *DEPVAR
  *MATERIAL, NAME=Mat310
  *USER MATERIAL, CONSTANTS=7, UNSYMM, TYPE=MECHANICAL
  *DEPVAR
  *MATERIAL, NAME=Mat311
  *USER MATERIAL, CONSTANTS=7, UNSYMM, TYPE=MECHANICAL
  *DEPVAR
  *MATERIAL, NAME=Mat312
  *USER MATERIAL, CONSTANTS=7, UNSYMM, TYPE=MECHANICAL
  *DEPVAR
  *MATERIAL, NAME=Mat313
  *USER MATERIAL, CONSTANTS=7, UNSYMM, TYPE=MECHANICAL
  *DEPVAR
  *MATERIAL, NAME=Mat314
  *USER MATERIAL, CONSTANTS=7, UNSYMM, TYPE=MECHANICAL
  *DEPVAR
  *MATERIAL, NAME=Mat315
  *USER MATERIAL, CONSTANTS=7, UNSYMM, TYPE=MECHANICAL
  *DEPVAR
  *MATERIAL, NAME=Mat316
  *USER MATERIAL, CONSTANTS=7, UNSYMM, TYPE=MECHANICAL
  *DEPVAR
  *MATERIAL, NAME=Mat317
  *USER MATERIAL, CONSTANTS=7, UNSYMM, TYPE=MECHANICAL
  *DEPVAR
  *MATERIAL, NAME=Mat335
  *USER MATERIAL, CONSTANTS=7, UNSYMM, TYPE=MECHANICAL
  *DEPVAR
  *MATERIAL, NAME=Mat336
  *USER MATERIAL, CONSTANTS=7, UNSYMM, TYPE=MECHANICAL
  *DEPVAR
  *MATERIAL, NAME=Mat337
  *USER MATERIAL, CONSTANTS=7, UNSYMM, TYPE=MECHANICAL
  *DEPVAR
  *MATERIAL, NAME=Mat338
  *USER MATERIAL, CONSTANTS=7, UNSYMM, TYPE=MECHANICAL
  *DEPVAR
  *MATERIAL, NAME=Mat339
  *USER MATERIAL, CONSTANTS=7, UNSYMM, TYPE=MECHANICAL
  *DEPVAR
  *MATERIAL, NAME=Mat340
  *USER MATERIAL, CONSTANTS=7, UNSYMM, TYPE=MECHANICAL
  *DEPVAR
  *MATERIAL, NAME=Mat341
  *USER MATERIAL, CONSTANTS=7, UNSYMM, TYPE=MECHANICAL
  *DEPVAR
  *MATERIAL, NAME=Mat342
  *USER MATERIAL, CONSTANTS=7, UNSYMM, TYPE=MECHANICAL
  *DEPVAR
  *MATERIAL, NAME=Mat343
  *USER MATERIAL, CONSTANTS=7, UNSYMM, TYPE=MECHANICAL
  *DEPVAR
  *MATERIAL, NAME=Mat344
  *USER MATERIAL, CONSTANTS=7, UNSYMM, TYPE=MECHANICAL
  *DEPVAR
  *MATERIAL, NAME=Mat345
  *USER MATERIAL, CONSTANTS=7, UNSYMM, TYPE=MECHANICAL
  *DEPVAR
  *MATERIAL, NAME=Mat346
  *USER MATERIAL, CONSTANTS=7, UNSYMM, TYPE=MECHANICAL
  *DEPVAR
  *MATERIAL, NAME=Mat347
  *USER MATERIAL, CONSTANTS=7, UNSYMM, TYPE=MECHANICAL
  *DEPVAR
  *MATERIAL, NAME=Mat348
  *USER MATERIAL, CONSTANTS=7, UNSYMM, TYPE=MECHANICAL
  *DEPVAR
  *MATERIAL, NAME=Mat349
  *USER MATERIAL, CONSTANTS=7, UNSYMM, TYPE=MECHANICAL
  *DEPVAR
  *MATERIAL, NAME=Mat350
  *USER MATERIAL, CONSTANTS=7, UNSYMM, TYPE=MECHANICAL
  *DEPVAR
  *MATERIAL, NAME=Mat351
  *USER MATERIAL, CONSTANTS=7, UNSYMM, TYPE=MECHANICAL
  *DEPVAR
  *MATERIAL, NAME=Mat352
  *USER MATERIAL, CONSTANTS=7, UNSYMM, TYPE=MECHANICAL
  *DEPVAR
  *MATERIAL, NAME=Mat353
  *USER MATERIAL, CONSTANTS=7, UNSYMM, TYPE=MECHANICAL
  *DEPVAR
  *MATERIAL, NAME=Mat354
  *USER MATERIAL, CONSTANTS=7, UNSYMM, TYPE=MECHANICAL
  *DEPVAR
  *MATERIAL, NAME=Mat371
  *USER MATERIAL, CONSTANTS=7, UNSYMM, TYPE=MECHANICAL
  *DEPVAR
  *MATERIAL, NAME=Mat372
  *USER MATERIAL, CONSTANTS=7, UNSYMM, TYPE=MECHANICAL
  *DEPVAR
  *MATERIAL, NAME=Mat373
  *USER MATERIAL, CONSTANTS=7, UNSYMM, TYPE=MECHANICAL
  *DEPVAR
  *MATERIAL, NAME=Mat374
  *USER MATERIAL, CONSTANTS=7, UNSYMM, TYPE=MECHANICAL
  *DEPVAR
  *MATERIAL, NAME=Mat375
  *USER MATERIAL, CONSTANTS=7, UNSYMM, TYPE=MECHANICAL
  *DEPVAR
  *MATERIAL, NAME=Mat376
  *USER MATERIAL, CONSTANTS=7, UNSYMM, TYPE=MECHANICAL
  *DEPVAR
  *MATERIAL, NAME=Mat377
  *USER MATERIAL, CONSTANTS=7, UNSYMM, TYPE=MECHANICAL
  *DEPVAR
  *MATERIAL, NAME=Mat378
  *USER MATERIAL, CONSTANTS=7, UNSYMM, TYPE=MECHANICAL
  *DEPVAR
  *MATERIAL, NAME=Mat379
  *USER MATERIAL, CONSTANTS=7, UNSYMM, TYPE=MECHANICAL
  *DEPVAR
  *MATERIAL, NAME=Mat380
  *USER MATERIAL, CONSTANTS=7, UNSYMM, TYPE=MECHANICAL
  *DEPVAR
  *MATERIAL, NAME=Mat381
  *USER MATERIAL, CONSTANTS=7, UNSYMM, TYPE=MECHANICAL
  *DEPVAR
  *MATERIAL, NAME=Mat382
  *USER MATERIAL, CONSTANTS=7, UNSYMM, TYPE=MECHANICAL
  *DEPVAR
  *MATERIAL, NAME=Mat383
  *USER MATERIAL, CONSTANTS=7, UNSYMM, TYPE=MECHANICAL
  *DEPVAR
  *MATERIAL, NAME=Mat384
  *USER MATERIAL, CONSTANTS=7, UNSYMM, TYPE=MECHANICAL
  *DEPVAR
  *MATERIAL, NAME=Mat385
  *USER MATERIAL, CONSTANTS=7, UNSYMM, TYPE=MECHANICAL
  *DEPVAR
  *MATERIAL, NAME=Mat386
  *USER MATERIAL, CONSTANTS=7, UNSYMM, TYPE=MECHANICAL
  *DEPVAR
  *MATERIAL, NAME=Mat387
  *USER MATERIAL, CONSTANTS=7, UNSYMM, TYPE=MECHANICAL
  *DEPVAR
  *MATERIAL, NAME=Mat388
  *USER MATERIAL, CONSTANTS=7, UNSYMM, TYPE=MECHANICAL
  *DEPVAR
  *MATERIAL, NAME=Mat389
  *USER MATERIAL, CONSTANTS=7, UNSYMM, TYPE=MECHANICAL
  *DEPVAR
  *MATERIAL, NAME=Mat390
  *USER MATERIAL, CONSTANTS=7, UNSYMM, TYPE=MECHANICAL
  *DEPVAR
  *MATERIAL, NAME=Mat391
  *USER MATERIAL, CONSTANTS=7, UNSYMM, TYPE=MECHANICAL
  *DEPVAR
  *MATERIAL, NAME=Mat407
  *USER MATERIAL, CONSTANTS=7, UNSYMM, TYPE=MECHANICAL
  *DEPVAR
  *MATERIAL, NAME=Mat408
  *USER MATERIAL, CONSTANTS=7, UNSYMM, TYPE=MECHANICAL
  *DEPVAR
  *MATERIAL, NAME=Mat409
  *USER MATERIAL, CONSTANTS=7, UNSYMM, TYPE=MECHANICAL
  *DEPVAR
  *MATERIAL, NAME=Mat410
  *USER MATERIAL, CONSTANTS=7, UNSYMM, TYPE=MECHANICAL
  *DEPVAR
  *MATERIAL, NAME=Mat411
  *USER MATERIAL, CONSTANTS=7, UNSYMM, TYPE=MECHANICAL
  *DEPVAR
  *MATERIAL, NAME=Mat412
  *USER MATERIAL, CONSTANTS=7, UNSYMM, TYPE=MECHANICAL
  *DEPVAR
  *MATERIAL, NAME=Mat413
  *USER MATERIAL, CONSTANTS=7, UNSYMM, TYPE=MECHANICAL
  *DEPVAR
  *MATERIAL, NAME=Mat414
  *USER MATERIAL, CONSTANTS=7, UNSYMM, TYPE=MECHANICAL
  *DEPVAR
  *MATERIAL, NAME=Mat415
  *USER MATERIAL, CONSTANTS=7, UNSYMM, TYPE=MECHANICAL
  *DEPVAR
  *MATERIAL, NAME=Mat416
  *USER MATERIAL, CONSTANTS=7, UNSYMM, TYPE=MECHANICAL
  *DEPVAR
  *MATERIAL, NAME=Mat417
  *USER MATERIAL, CONSTANTS=7, UNSYMM, TYPE=MECHANICAL
  *DEPVAR
  *MATERIAL, NAME=Mat418
  *USER MATERIAL, CONSTANTS=7, UNSYMM, TYPE=MECHANICAL
  *DEPVAR
  *MATERIAL, NAME=Mat419
  *USER MATERIAL, CONSTANTS=7, UNSYMM, TYPE=MECHANICAL
  *DEPVAR
  *MATERIAL, NAME=Mat420
  *USER MATERIAL, CONSTANTS=7, UNSYMM, TYPE=MECHANICAL
  *DEPVAR
  *MATERIAL, NAME=Mat421
  *USER MATERIAL, CONSTANTS=7, UNSYMM, TYPE=MECHANICAL
  *DEPVAR
  *MATERIAL, NAME=Mat422
  *USER MATERIAL, CONSTANTS=7, UNSYMM, TYPE=MECHANICAL
  *DEPVAR
  *MATERIAL, NAME=Mat423
  *USER MATERIAL, CONSTANTS=7, UNSYMM, TYPE=MECHANICAL
  *DEPVAR
  *MATERIAL, NAME=Mat424
  *USER MATERIAL, CONSTANTS=7, UNSYMM, TYPE=MECHANICAL
  *DEPVAR
  *MATERIAL, NAME=Mat425
  *USER MATERIAL, CONSTANTS=7, UNSYMM, TYPE=MECHANICAL
  *DEPVAR
  *MATERIAL, NAME=Mat426
  *USER MATERIAL, CONSTANTS=7, UNSYMM, TYPE=MECHANICAL
  *DEPVAR
  *MATERIAL, NAME=Mat427
  *USER MATERIAL, CONSTANTS=7, UNSYMM, TYPE=MECHANICAL
  *DEPVAR
  *MATERIAL, NAME=Mat428
  *USER MATERIAL, CONSTANTS=7, UNSYMM, TYPE=MECHANICAL
  *DEPVAR
  *MATERIAL, NAME=Mat443
  *USER MATERIAL, CONSTANTS=7, UNSYMM, TYPE=MECHANICAL
  *DEPVAR
  *MATERIAL, NAME=Mat444
  *USER MATERIAL, CONSTANTS=7, UNSYMM, TYPE=MECHANICAL
  *DEPVAR
  *MATERIAL, NAME=Mat445
  *USER MATERIAL, CONSTANTS=7, UNSYMM, TYPE=MECHANICAL
  *DEPVAR
  *MATERIAL, NAME=Mat446
  *USER MATERIAL, CONSTANTS=7, UNSYMM, TYPE=MECHANICAL
  *DEPVAR
  *MATERIAL, NAME=Mat447
  *USER MATERIAL, CONSTANTS=7, UNSYMM, TYPE=MECHANICAL
  *DEPVAR
  *MATERIAL, NAME=Mat448
  *USER MATERIAL, CONSTANTS=7, UNSYMM, TYPE=MECHANICAL
  *DEPVAR
  *MATERIAL, NAME=Mat449
  *USER MATERIAL, CONSTANTS=7, UNSYMM, TYPE=MECHANICAL
  *DEPVAR
  *MATERIAL, NAME=Mat450
  *USER MATERIAL, CONSTANTS=7, UNSYMM, TYPE=MECHANICAL
  *DEPVAR
  *MATERIAL, NAME=Mat451
  *USER MATERIAL, CONSTANTS=7, UNSYMM, TYPE=MECHANICAL
  *DEPVAR
  *MATERIAL, NAME=Mat452
  *USER MATERIAL, CONSTANTS=7, UNSYMM, TYPE=MECHANICAL
  *DEPVAR
  *MATERIAL, NAME=Mat453
  *USER MATERIAL, CONSTANTS=7, UNSYMM, TYPE=MECHANICAL
  *DEPVAR
  *MATERIAL, NAME=Mat454
  *USER MATERIAL, CONSTANTS=7, UNSYMM, TYPE=MECHANICAL
  *DEPVAR
  *MATERIAL, NAME=Mat455
  *USER MATERIAL, CONSTANTS=7, UNSYMM, TYPE=MECHANICAL
  *DEPVAR
  *MATERIAL, NAME=Mat456
  *USER MATERIAL, CONSTANTS=7, UNSYMM, TYPE=MECHANICAL
  *DEPVAR
  *MATERIAL, NAME=Mat457
  *USER MATERIAL, CONSTANTS=7, UNSYMM, TYPE=MECHANICAL
  *DEPVAR
  *MATERIAL, NAME=Mat458
  *USER MATERIAL, CONSTANTS=7, UNSYMM, TYPE=MECHANICAL
  *DEPVAR
  *MATERIAL, NAME=Mat459
  *USER MATERIAL, CONSTANTS=7, UNSYMM, TYPE=MECHANICAL
  *DEPVAR
  *MATERIAL, NAME=Mat460
  *USER MATERIAL, CONSTANTS=7, UNSYMM, TYPE=MECHANICAL
  *DEPVAR
  *MATERIAL, NAME=Mat461
  *USER MATERIAL, CONSTANTS=7, UNSYMM, TYPE=MECHANICAL
  *DEPVAR
  *MATERIAL, NAME=Mat462
  *USER MATERIAL, CONSTANTS=7, UNSYMM, TYPE=MECHANICAL
  *DEPVAR
  *MATERIAL, NAME=Mat463
  *USER MATERIAL, CONSTANTS=7, UNSYMM, TYPE=MECHANICAL
  *DEPVAR
  *MATERIAL, NAME=Mat464
  *USER MATERIAL, CONSTANTS=7, UNSYMM, TYPE=MECHANICAL
  *DEPVAR
  *MATERIAL, NAME=Mat479
  *USER MATERIAL, CONSTANTS=7, UNSYMM, TYPE=MECHANICAL
  *DEPVAR
  *MATERIAL, NAME=Mat480
  *USER MATERIAL, CONSTANTS=7, UNSYMM, TYPE=MECHANICAL
  *DEPVAR
  *MATERIAL, NAME=Mat481
  *USER MATERIAL, CONSTANTS=7, UNSYMM, TYPE=MECHANICAL
  *DEPVAR
  *MATERIAL, NAME=Mat482
  *USER MATERIAL, CONSTANTS=7, UNSYMM, TYPE=MECHANICAL
  *DEPVAR
  *MATERIAL, NAME=Mat483
  *USER MATERIAL, CONSTANTS=7, UNSYMM, TYPE=MECHANICAL
  *DEPVAR
  *MATERIAL, NAME=Mat484
  *USER MATERIAL, CONSTANTS=7, UNSYMM, TYPE=MECHANICAL
  *DEPVAR
  *MATERIAL, NAME=Mat485
  *USER MATERIAL, CONSTANTS=7, UNSYMM, TYPE=MECHANICAL
  *DEPVAR
  *MATERIAL, NAME=Mat486
  *USER MATERIAL, CONSTANTS=7, UNSYMM, TYPE=MECHANICAL
  *DEPVAR
  *MATERIAL, NAME=Mat487
  *USER MATERIAL, CONSTANTS=7, UNSYMM, TYPE=MECHANICAL
  *DEPVAR
  *MATERIAL, NAME=Mat488
  *USER MATERIAL, CONSTANTS=7, UNSYMM, TYPE=MECHANICAL
  *DEPVAR
  *MATERIAL, NAME=Mat489
  *USER MATERIAL, CONSTANTS=7, UNSYMM, TYPE=MECHANICAL
  *DEPVAR
  *MATERIAL, NAME=Mat490
  *USER MATERIAL, CONSTANTS=7, UNSYMM, TYPE=MECHANICAL
  *DEPVAR
  *MATERIAL, NAME=Mat491
  *USER MATERIAL, CONSTANTS=7, UNSYMM, TYPE=MECHANICAL
  *DEPVAR
  *MATERIAL, NAME=Mat492
  *USER MATERIAL, CONSTANTS=7, UNSYMM, TYPE=MECHANICAL
  *DEPVAR
  *MATERIAL, NAME=Mat493
  *USER MATERIAL, CONSTANTS=7, UNSYMM, TYPE=MECHANICAL
  *DEPVAR
  *MATERIAL, NAME=Mat494
  *USER MATERIAL, CONSTANTS=7, UNSYMM, TYPE=MECHANICAL
  *DEPVAR
  *MATERIAL, NAME=Mat495
  *USER MATERIAL, CONSTANTS=7, UNSYMM, TYPE=MECHANICAL
  *DEPVAR
  *MATERIAL, NAME=Mat496
  *USER MATERIAL, CONSTANTS=7, UNSYMM, TYPE=MECHANICAL
  *DEPVAR
  *MATERIAL, NAME=Mat497
  *USER MATERIAL, CONSTANTS=7, UNSYMM, TYPE=MECHANICAL
  *DEPVAR
  *MATERIAL, NAME=Mat498
  *USER MATERIAL, CONSTANTS=7, UNSYMM, TYPE=MECHANICAL
  *DEPVAR
  *MATERIAL, NAME=Mat499
  *USER MATERIAL, CONSTANTS=7, UNSYMM, TYPE=MECHANICAL
  *DEPVAR
  *MATERIAL, NAME=Mat515
  *USER MATERIAL, CONSTANTS=7, UNSYMM, TYPE=MECHANICAL
  *DEPVAR
  *MATERIAL, NAME=Mat516
  *USER MATERIAL, CONSTANTS=7, UNSYMM, TYPE=MECHANICAL
  *DEPVAR
  *MATERIAL, NAME=Mat517
  *USER MATERIAL, CONSTANTS=7, UNSYMM, TYPE=MECHANICAL
  *DEPVAR
  *MATERIAL, NAME=Mat518
  *USER MATERIAL, CONSTANTS=7, UNSYMM, TYPE=MECHANICAL
  *DEPVAR
  *MATERIAL, NAME=Mat519
  *USER MATERIAL, CONSTANTS=7, UNSYMM, TYPE=MECHANICAL
  *DEPVAR
  *MATERIAL, NAME=Mat520
  *USER MATERIAL, CONSTANTS=7, UNSYMM, TYPE=MECHANICAL
  *DEPVAR
  *MATERIAL, NAME=Mat521
  *USER MATERIAL, CONSTANTS=7, UNSYMM, TYPE=MECHANICAL
  *DEPVAR
  *MATERIAL, NAME=Mat522
  *USER MATERIAL, CONSTANTS=7, UNSYMM, TYPE=MECHANICAL
  *DEPVAR
  *MATERIAL, NAME=Mat523
  *USER MATERIAL, CONSTANTS=7, UNSYMM, TYPE=MECHANICAL
  *DEPVAR
  *MATERIAL, NAME=Mat524
  *USER MATERIAL, CONSTANTS=7, UNSYMM, TYPE=MECHANICAL
  *DEPVAR
  *MATERIAL, NAME=Mat525
  *USER MATERIAL, CONSTANTS=7, UNSYMM, TYPE=MECHANICAL
  *DEPVAR
  *MATERIAL, NAME=Mat526
  *USER MATERIAL, CONSTANTS=7, UNSYMM, TYPE=MECHANICAL
  *DEPVAR
  *MATERIAL, NAME=Mat527
  *USER MATERIAL, CONSTANTS=7, UNSYMM, TYPE=MECHANICAL
  *DEPVAR
  *MATERIAL, NAME=Mat528
  *USER MATERIAL, CONSTANTS=7, UNSYMM, TYPE=MECHANICAL
  *DEPVAR
  *MATERIAL, NAME=Mat529
  *USER MATERIAL, CONSTANTS=7, UNSYMM, TYPE=MECHANICAL
  *DEPVAR
  *MATERIAL, NAME=Mat530
  *USER MATERIAL, CONSTANTS=7, UNSYMM, TYPE=MECHANICAL
  *DEPVAR
  *MATERIAL, NAME=Mat531
  *USER MATERIAL, CONSTANTS=7, UNSYMM, TYPE=MECHANICAL
  *DEPVAR
  *MATERIAL, NAME=Mat532
  *USER MATERIAL, CONSTANTS=7, UNSYMM, TYPE=MECHANICAL
  *DEPVAR
  *MATERIAL, NAME=Mat533
  *USER MATERIAL, CONSTANTS=7, UNSYMM, TYPE=MECHANICAL
  *DEPVAR
  *MATERIAL, NAME=Mat534
  *USER MATERIAL, CONSTANTS=7, UNSYMM, TYPE=MECHANICAL
  *DEPVAR
  *MATERIAL, NAME=Mat535
  *USER MATERIAL, CONSTANTS=7, UNSYMM, TYPE=MECHANICAL
  *DEPVAR
  *MATERIAL, NAME=Mat551
  *USER MATERIAL, CONSTANTS=7, UNSYMM, TYPE=MECHANICAL
  *DEPVAR
  *MATERIAL, NAME=Mat552
  *USER MATERIAL, CONSTANTS=7, UNSYMM, TYPE=MECHANICAL
  *DEPVAR
  *MATERIAL, NAME=Mat553
[...]
            NOTE
  
   10000000     -2.7400000E-02 -4.5800000E-02 -2.5200000E-01  9.9999967E-10  4.9999958E-10 -1.4999993E-06
  
  
  
   THE FOLLOWING TABLE IS PRINTED FOR NODES BELONGING TO NODE SET REF_NODE
  
       NODE FOOT-  RF1            RF2            RF3            RM1            RM2            RM3          
            NOTE
  
   10000000     -4.5023196E+02 -1.8582198E+02 -1.2988522E+04 -3.8502296E+03  4.5562297E+03 -7.1586640E+02
  
  
  
   THE FOLLOWING TABLE IS PRINTED FOR NODES BELONGING TO NODE SET REF_NODE
  
       NODE FOOT-  CF1            CF2            CF3            CM1            CM2            CM3          
            NOTE
  
  ALL VALUES IN THIS TABLE ARE ZERO


                                INCREMENT     5 SUMMARY


 TIME INCREMENT COMPLETED  5.000E-02,  FRACTION OF STEP COMPLETED  0.250    
 STEP TIME COMPLETED       0.250    ,  TOTAL TIME COMPLETED         9.25    
  
  
  
  
                                       N O D E   O U T P U T
  
  
  
  
   THE FOLLOWING TABLE IS PRINTED FOR NODES BELONGING TO NODE SET REF_NODE
  
       NODE FOOT-  U1             U2             U3             UR1            UR2            UR3          
            NOTE
  
   10000000     -2.8250000E-02 -4.5500000E-02 -2.5175000E-01  9.9999967E-10  4.9999958E-10 -1.4999993E-06
  
  
  
   THE FOLLOWING TABLE IS PRINTED FOR NODES BELONGING TO NODE SET REF_NODE
  
       NODE FOOT-  RF1            RF2            RF3            RM1            RM2            RM3          
            NOTE
  
   10000000     -5.0483982E+02 -1.6598135E+02 -1.2907588E+04 -3.7858222E+03  4.4803493E+03 -6.5841103E+02
  
  
  
   THE FOLLOWING TABLE IS PRINTED FOR NODES BELONGING TO NODE SET REF_NODE
  
       NODE FOOT-  CF1            CF2            CF3            CM1            CM2            CM3          
            NOTE
  
  ALL VALUES IN THIS TABLE ARE ZERO


                                INCREMENT     6 SUMMARY


 TIME INCREMENT COMPLETED  5.000E-02,  FRACTION OF STEP COMPLETED  0.300    
 STEP TIME COMPLETED       0.300    ,  TOTAL TIME COMPLETED         9.30    
  
  
  
  
                                       N O D E   O U T P U T
  
  
  
  
   THE FOLLOWING TABLE IS PRINTED FOR NODES BELONGING TO NODE SET REF_NODE
  
       NODE FOOT-  U1             U2             U3             UR1            UR2            UR3          
            NOTE
  
   10000000     -2.9100000E-02 -4.5200000E-02 -2.5150000E-01  9.9999967E-10  4.9999958E-10 -1.4999993E-06
  
  
  
   THE FOLLOWING TABLE IS PRINTED FOR NODES BELONGING TO NODE SET REF_NODE
  
       NODE FOOT-  RF1            RF2            RF3            RM1            RM2            RM3          
            NOTE
  
   10000000     -5.5943731E+02 -1.4614457E+02 -1.2826628E+04 -3.7214077E+03  4.4044079E+03 -6.0097294E+02
  
  
  
   THE FOLLOWING TABLE IS PRINTED FOR NODES BELONGING TO NODE SET REF_NODE
  
       NODE FOOT-  CF1            CF2            CF3            CM1            CM2            CM3          
            NOTE
  
  ALL VALUES IN THIS TABLE ARE ZERO


                                INCREMENT     7 SUMMARY


 TIME INCREMENT COMPLETED  5.000E-02,  FRACTION OF STEP COMPLETED  0.350    
 STEP TIME COMPLETED       0.350    ,  TOTAL TIME COMPLETED         9.35    
  
  
  
  
                                       N O D E   O U T P U T
  
  
  
  
   THE FOLLOWING TABLE IS PRINTED FOR NODES BELONGING TO NODE SET REF_NODE
  
       NODE FOOT-  U1             U2             U3             UR1            UR2            UR3          
            NOTE
  
   10000000     -2.9950000E-02 -4.4900000E-02 -2.5125000E-01  9.9999967E-10  4.9999958E-10 -1.4999993E-06
  
  
  
   THE FOLLOWING TABLE IS PRINTED FOR NODES BELONGING TO NODE SET REF_NODE
  
       NODE FOOT-  RF1            RF2            RF3            RM1            RM2            RM3          
            NOTE
  
   10000000     -6.1402439E+02 -1.2631164E+02 -1.2745640E+04 -3.6569862E+03  4.3284054E+03 -5.4355213E+02
  
  
  
   THE FOLLOWING TABLE IS PRINTED FOR NODES BELONGING TO NODE SET REF_NODE
  
       NODE FOOT-  CF1            CF2            CF3            CM1            CM2            CM3          
            NOTE
  
  ALL VALUES IN THIS TABLE ARE ZERO


                                INCREMENT     8 SUMMARY


 TIME INCREMENT COMPLETED  5.000E-02,  FRACTION OF STEP COMPLETED  0.400    
 STEP TIME COMPLETED       0.400    ,  TOTAL TIME COMPLETED         9.40    
  
  
  
  
                                       N O D E   O U T P U T
  
  
  
  
   THE FOLLOWING TABLE IS PRINTED FOR NODES BELONGING TO NODE SET REF_NODE
  
       NODE FOOT-  U1             U2             U3             UR1            UR2            UR3          
            NOTE
  
   10000000     -3.0800000E-02 -4.4600000E-02 -2.5100000E-01  9.9999967E-10  4.9999958E-10 -1.4999993E-06
  
  
  
   THE FOLLOWING TABLE IS PRINTED FOR NODES BELONGING TO NODE SET REF_NODE
  
       NODE FOOT-  RF1            RF2            RF3            RM1            RM2            RM3          
            NOTE
  
   10000000     -6.6860106E+02 -1.0648256E+02 -1.2664625E+04 -3.5925577E+03  4.2523417E+03 -4.8614863E+02
  
  
  
   THE FOLLOWING TABLE IS PRINTED FOR NODES BELONGING TO NODE SET REF_NODE
  
       NODE FOOT-  CF1            CF2            CF3            CM1            CM2            CM3          
            NOTE
  
  ALL VALUES IN THIS TABLE ARE ZERO


                                INCREMENT     9 SUMMARY


 TIME INCREMENT COMPLETED  5.000E-02,  FRACTION OF STEP COMPLETED  0.450    
 STEP TIME COMPLETED       0.450    ,  TOTAL TIME COMPLETED         9.45    
  
  
  
  
                                       N O D E   O U T P U T
  
  
  
  
   THE FOLLOWING TABLE IS PRINTED FOR NODES BELONGING TO NODE SET REF_NODE
  
       NODE FOOT-  U1             U2             U3             UR1            UR2            UR3          
            NOTE
  
   10000000     -3.1650000E-02 -4.4300000E-02 -2.5075000E-01  9.9999967E-10  4.9999958E-10 -1.4999993E-06
  
  
  
   THE FOLLOWING TABLE IS PRINTED FOR NODES BELONGING TO NODE SET REF_NODE
  
       NODE FOOT-  RF1            RF2            RF3            RM1            RM2            RM3          
            NOTE
  
   10000000     -7.2316731E+02 -8.6657353E+01 -1.2583584E+04 -3.5281222E+03  4.1762169E+03 -4.2876246E+02
  
  
  
   THE FOLLOWING TABLE IS PRINTED FOR NODES BELONGING TO NODE SET REF_NODE
  
       NODE FOOT-  CF1            CF2            CF3            CM1            CM2            CM3          
            NOTE
  
  ALL VALUES IN THIS TABLE ARE ZERO


                                INCREMENT    10 SUMMARY


 TIME INCREMENT COMPLETED  5.000E-02,  FRACTION OF STEP COMPLETED  0.500    
 STEP TIME COMPLETED       0.500    ,  TOTAL TIME COMPLETED         9.50    
  
  
  
  
                                       N O D E   O U T P U T
  
  
  
  
   THE FOLLOWING TABLE IS PRINTED FOR NODES BELONGING TO NODE SET REF_NODE
  
       NODE FOOT-  U1             U2             U3             UR1            UR2            UR3          
            NOTE
  
   10000000     -3.2500000E-02 -4.4000000E-02 -2.5050000E-01  9.9999967E-10  4.9999958E-10 -1.4999993E-06
  
  
  
   THE FOLLOWING TABLE IS PRINTED FOR NODES BELONGING TO NODE SET REF_NODE
  
       NODE FOOT-  RF1            RF2            RF3            RM1            RM2            RM3          
            NOTE
  
   10000000     -7.7772312E+02 -6.6836009E+01 -1.2502515E+04 -3.4636797E+03  4.1000308E+03 -3.7139362E+02
  
  
  
   THE FOLLOWING TABLE IS PRINTED FOR NODES BELONGING TO NODE SET REF_NODE
  
       NODE FOOT-  CF1            CF2            CF3            CM1            CM2            CM3          
            NOTE
  
  ALL VALUES IN THIS TABLE ARE ZERO


                                INCREMENT    11 SUMMARY


 TIME INCREMENT COMPLETED  5.000E-02,  FRACTION OF STEP COMPLETED  0.550    
 STEP TIME COMPLETED       0.550    ,  TOTAL TIME COMPLETED         9.55    
  
  
  
  
                                       N O D E   O U T P U T
  
  
  
  
   THE FOLLOWING TABLE IS PRINTED FOR NODES BELONGING TO NODE SET REF_NODE
  
       NODE FOOT-  U1             U2             U3             UR1            UR2            UR3          
            NOTE
  
   10000000     -3.3350000E-02 -4.3700000E-02 -2.5025000E-01  9.9999967E-10  4.9999958E-10 -1.4999993E-06
  
  
  
   THE FOLLOWING TABLE IS PRINTED FOR NODES BELONGING TO NODE SET REF_NODE
  
       NODE FOOT-  RF1            RF2            RF3            RM1            RM2            RM3          
            NOTE
  
   10000000     -8.3226847E+02 -4.7018540E+01 -1.2421419E+04 -3.3992304E+03  4.0237834E+03 -3.1404214E+02
  
  
  
   THE FOLLOWING TABLE IS PRINTED FOR NODES BELONGING TO NODE SET REF_NODE
  
       NODE FOOT-  CF1            CF2            CF3            CM1            CM2            CM3          
            NOTE
  
  ALL VALUES IN THIS TABLE ARE ZERO


                                INCREMENT    12 SUMMARY


 TIME INCREMENT COMPLETED  5.000E-02,  FRACTION OF STEP COMPLETED  0.600    
 STEP TIME COMPLETED       0.600    ,  TOTAL TIME COMPLETED         9.60    
  
  
  
  
                                       N O D E   O U T P U T
  
  
  
  
   THE FOLLOWING TABLE IS PRINTED FOR NODES BELONGING TO NODE SET REF_NODE
  
       NODE FOOT-  U1             U2             U3             UR1            UR2            UR3          
            NOTE
  
   10000000     -3.4200000E-02 -4.3400000E-02 -2.5000000E-01  9.9999967E-10  4.9999958E-10 -1.4999993E-06
  
  
  
   THE FOLLOWING TABLE IS PRINTED FOR NODES BELONGING TO NODE SET REF_NODE
  
       NODE FOOT-  RF1            RF2            RF3            RM1            RM2            RM3          
            NOTE
  
   10000000     -8.8680336E+02 -2.7204949E+01 -1.2340297E+04 -3.3347742E+03  3.9474747E+03 -2.5670803E+02
  
  
  
   THE FOLLOWING TABLE IS PRINTED FOR NODES BELONGING TO NODE SET REF_NODE
  
       NODE FOOT-  CF1            CF2            CF3            CM1            CM2            CM3          
            NOTE
  
  ALL VALUES IN THIS TABLE ARE ZERO


                                INCREMENT    13 SUMMARY


 TIME INCREMENT COMPLETED  5.000E-02,  FRACTION OF STEP COMPLETED  0.650    
 STEP TIME COMPLETED       0.650    ,  TOTAL TIME COMPLETED         9.65    
  
  
  
  
                                       N O D E   O U T P U T
  
  
  
  
   THE FOLLOWING TABLE IS PRINTED FOR NODES BELONGING TO NODE SET REF_NODE
  
       NODE FOOT-  U1             U2             U3             UR1            UR2            UR3          
            NOTE
  
   10000000     -3.5050000E-02 -4.3100000E-02 -2.4975000E-01  9.9999967E-10  4.9999958E-10 -1.4999993E-06
  
  
  
   THE FOLLOWING TABLE IS PRINTED FOR NODES BELONGING TO NODE SET REF_NODE
  
       NODE FOOT-  RF1            RF2            RF3            RM1            RM2            RM3          
            NOTE
  
   10000000     -9.4132776E+02 -7.3952419E+00 -1.2259147E+04 -3.2703112E+03  3.8711046E+03 -1.9939130E+02
  
  
  
   THE FOLLOWING TABLE IS PRINTED FOR NODES BELONGING TO NODE SET REF_NODE
  
       NODE FOOT-  CF1            CF2            CF3            CM1            CM2            CM3          
            NOTE
  
  ALL VALUES IN THIS TABLE ARE ZERO


                                INCREMENT    14 SUMMARY


 TIME INCREMENT COMPLETED  5.000E-02,  FRACTION OF STEP COMPLETED  0.700    
 STEP TIME COMPLETED       0.700    ,  TOTAL TIME COMPLETED         9.70    
  
  
  
  
                                       N O D E   O U T P U T
  
  
  
  
   THE FOLLOWING TABLE IS PRINTED FOR NODES BELONGING TO NODE SET REF_NODE
  
       NODE FOOT-  U1             U2             U3             UR1            UR2            UR3          
            NOTE
  
   10000000     -3.5900000E-02 -4.2800000E-02 -2.4950000E-01  9.9999967E-10  4.9999958E-10 -1.4999993E-06
  
  
  
   THE FOLLOWING TABLE IS PRINTED FOR NODES BELONGING TO NODE SET REF_NODE
  
       NODE FOOT-  RF1            RF2            RF3            RM1            RM2            RM3          
            NOTE
  
   10000000     -9.9584166E+02  1.2410575E+01 -1.2177970E+04 -3.2058414E+03  3.7946730E+03 -1.4209198E+02
  
  
  
   THE FOLLOWING TABLE IS PRINTED FOR NODES BELONGING TO NODE SET REF_NODE
  
       NODE FOOT-  CF1            CF2            CF3            CM1            CM2            CM3          
            NOTE
  
  ALL VALUES IN THIS TABLE ARE ZERO


                                INCREMENT    15 SUMMARY


 TIME INCREMENT COMPLETED  5.000E-02,  FRACTION OF STEP COMPLETED  0.750    
 STEP TIME COMPLETED       0.750    ,  TOTAL TIME COMPLETED         9.75    
  
  
  
  
                                       N O D E   O U T P U T
  
  
  
  
   THE FOLLOWING TABLE IS PRINTED FOR NODES BELONGING TO NODE SET REF_NODE
  
       NODE FOOT-  U1             U2             U3             UR1            UR2            UR3          
            NOTE
  
   10000000     -3.6750000E-02 -4.2500000E-02 -2.4925000E-01  9.9999967E-10  4.9999958E-10 -1.4999993E-06
  
  
  
   THE FOLLOWING TABLE IS PRINTED FOR NODES BELONGING TO NODE SET REF_NODE
  
       NODE FOOT-  RF1            RF2            RF3            RM1            RM2            RM3          
            NOTE
  
   10000000     -1.0503451E+03  3.2212498E+01 -1.2096767E+04 -3.1413648E+03  3.7181799E+03 -8.4810078E+01
  
  
  
   THE FOLLOWING TABLE IS PRINTED FOR NODES BELONGING TO NODE SET REF_NODE
  
       NODE FOOT-  CF1            CF2            CF3            CM1            CM2            CM3          
            NOTE
  
  ALL VALUES IN THIS TABLE ARE ZERO


                                INCREMENT    16 SUMMARY


 TIME INCREMENT COMPLETED  5.000E-02,  FRACTION OF STEP COMPLETED  0.800    
 STEP TIME COMPLETED       0.800    ,  TOTAL TIME COMPLETED         9.80    
  
  
  
  
                                       N O D E   O U T P U T
  
  
  
  
   THE FOLLOWING TABLE IS PRINTED FOR NODES BELONGING TO NODE SET REF_NODE
  
       NODE FOOT-  U1             U2             U3             UR1            UR2            UR3          
            NOTE
  
   10000000     -3.7600000E-02 -4.2200000E-02 -2.4900000E-01  9.9999967E-10  4.9999958E-10 -1.4999993E-06
  
  
  
   THE FOLLOWING TABLE IS PRINTED FOR NODES BELONGING TO NODE SET REF_NODE
  
       NODE FOOT-  RF1            RF2            RF3            RM1            RM2            RM3          
            NOTE
  
   10000000     -1.1048379E+03  5.2010520E+01 -1.2015536E+04 -3.0768814E+03  3.6416252E+03 -2.7545608E+01
  
  
  
   THE FOLLOWING TABLE IS PRINTED FOR NODES BELONGING TO NODE SET REF_NODE
  
       NODE FOOT-  CF1            CF2            CF3            CM1            CM2            CM3          
            NOTE
  
  ALL VALUES IN THIS TABLE ARE ZERO


                                INCREMENT    17 SUMMARY


 TIME INCREMENT COMPLETED  5.000E-02,  FRACTION OF STEP COMPLETED  0.850    
 STEP TIME COMPLETED       0.850    ,  TOTAL TIME COMPLETED         9.85    
  
  
  
  
                                       N O D E   O U T P U T
  
  
  
  
   THE FOLLOWING TABLE IS PRINTED FOR NODES BELONGING TO NODE SET REF_NODE
  
       NODE FOOT-  U1             U2             U3             UR1            UR2            UR3          
            NOTE
  
   10000000     -3.8450000E-02 -4.1900000E-02 -2.4875000E-01  9.9999967E-10  4.9999958E-10 -1.4999993E-06
  
  
  
   THE FOLLOWING TABLE IS PRINTED FOR NODES BELONGING TO NODE SET REF_NODE
  
       NODE FOOT-  RF1            RF2            RF3            RM1            RM2            RM3          
            NOTE
  
   10000000     -1.1593202E+03  7.1804636E+01 -1.1934279E+04 -3.0123914E+03  3.5650089E+03  2.9701413E+01
  
  
  
   THE FOLLOWING TABLE IS PRINTED FOR NODES BELONGING TO NODE SET REF_NODE
  
       NODE FOOT-  CF1            CF2            CF3            CM1            CM2            CM3          
            NOTE
  
  ALL VALUES IN THIS TABLE ARE ZERO


                                INCREMENT    18 SUMMARY


 TIME INCREMENT COMPLETED  5.000E-02,  FRACTION OF STEP COMPLETED  0.900    
 STEP TIME COMPLETED       0.900    ,  TOTAL TIME COMPLETED         9.90    
  
  
  
  
                                       N O D E   O U T P U T
  
  
  
  
   THE FOLLOWING TABLE IS PRINTED FOR NODES BELONGING TO NODE SET REF_NODE
  
       NODE FOOT-  U1             U2             U3             UR1            UR2            UR3          
            NOTE
  
   10000000     -3.9300000E-02 -4.1600000E-02 -2.4850000E-01  9.9999967E-10  4.9999958E-10 -1.4999993E-06
  
  
  
   THE FOLLOWING TABLE IS PRINTED FOR NODES BELONGING TO NODE SET REF_NODE
  
       NODE FOOT-  RF1            RF2            RF3            RM1            RM2            RM3          
            NOTE
  
   10000000     -1.2137920E+03  9.1594841E+01 -1.1852994E+04 -2.9478947E+03  3.4883310E+03  8.6930967E+01
  
  
  
   THE FOLLOWING TABLE IS PRINTED FOR NODES BELONGING TO NODE SET REF_NODE
  
       NODE FOOT-  CF1            CF2            CF3            CM1            CM2            CM3          
            NOTE
  
  ALL VALUES IN THIS TABLE ARE ZERO


                                INCREMENT    19 SUMMARY


 TIME INCREMENT COMPLETED  5.000E-02,  FRACTION OF STEP COMPLETED  0.950    
 STEP TIME COMPLETED       0.950    ,  TOTAL TIME COMPLETED         9.95    
  
  
  
  
                                       N O D E   O U T P U T
  
  
  
  
   THE FOLLOWING TABLE IS PRINTED FOR NODES BELONGING TO NODE SET REF_NODE
  
       NODE FOOT-  U1             U2             U3             UR1            UR2            UR3          
            NOTE
  
   10000000     -4.0150000E-02 -4.1300000E-02 -2.4825000E-01  9.9999967E-10  4.9999958E-10 -1.4999993E-06
  
  
  
   THE FOLLOWING TABLE IS PRINTED FOR NODES BELONGING TO NODE SET REF_NODE
  
       NODE FOOT-  RF1            RF2            RF3            RM1            RM2            RM3          
            NOTE
  
   10000000     -1.2682532E+03  1.1138113E+02 -1.1771683E+04 -2.8833914E+03  3.4115913E+03  1.4414304E+02
  
  
  
   THE FOLLOWING TABLE IS PRINTED FOR NODES BELONGING TO NODE SET REF_NODE
  
       NODE FOOT-  CF1            CF2            CF3            CM1            CM2            CM3          
            NOTE
  
  ALL VALUES IN THIS TABLE ARE ZERO


                                INCREMENT    20 SUMMARY


 TIME INCREMENT COMPLETED  5.000E-02,  FRACTION OF STEP COMPLETED   1.00    
 STEP TIME COMPLETED        1.00    ,  TOTAL TIME COMPLETED         10.0    
  
  
  
  
                                       N O D E   O U T P U T
  
  
  
  
   THE FOLLOWING TABLE IS PRINTED FOR NODES BELONGING TO NODE SET REF_NODE
  
       NODE FOOT-  U1             U2             U3             UR1            UR2            UR3          
            NOTE
  
   10000000     -4.1000000E-02 -4.1000000E-02 -2.4800000E-01  9.9999967E-10  4.9999958E-10 -1.4999993E-06
  
  
  
   THE FOLLOWING TABLE IS PRINTED FOR NODES BELONGING TO NODE SET REF_NODE
  
       NODE FOOT-  RF1            RF2            RF3            RM1            RM2            RM3          
            NOTE
  
   10000000     -1.3227038E+03  1.3116350E+02 -1.1690344E+04 -2.8188815E+03  3.3347898E+03  2.0133762E+02
  
  
  
   THE FOLLOWING TABLE IS PRINTED FOR NODES BELONGING TO NODE SET REF_NODE
  
       NODE FOOT-  CF1            CF2            CF3            CM1            CM2            CM3          
            NOTE
  
  ALL VALUES IN THIS TABLE ARE ZERO


          THE ANALYSIS HAS BEEN COMPLETED



                              ANALYSIS COMPLETE
                              WITH    383 WARNING MESSAGES ON THE DAT FILE



     JOB TIME SUMMARY
       USER TIME (SEC)      =   293.36    
       SYSTEM TIME (SEC)    =   90.430    
       TOTAL CPU TIME (SEC) =   383.79    
       WALLCLOCK TIME (SEC) =         29
