1

   Abaqus 2021                                  Date 22-Feb-2023   Time 19:04:25
   For use by UNIVERSITAET BERN under license from Dassault Systemes or its subsidiary.



                         The Abaqus Software is a product of:

                           Dassault Systemes SIMULIA Corp.
                           1301 Atwood Avenue, Suite 101W
                              Johnston, RI 02919, USA
 


                   The Abaqus Software is available only under license
                   from Dassault Systemes or its subsidiary and may be
                   used or reproduced only in accordance with the terms
                   of such license.
 
                          On machine artorg-cortex.campus.unibe.ch 
                          you are authorized to run
                          Abaqus/Standard until 31-Jan-2024

                          Your site id is: 200000000031934 


 
                    For assistance or any other information you may
                    obtain contact information for your local office
                    from the world wide web at:

                      http://www.3ds.com/products/simulia/locations/

 
                * * * * * * * * * * * * * * * * * * * * * * * * * * * * * * 
                *                                                         * 
                *                   *****************                     * 
                *                   *  N O T I C E  *                     * 
                *                   *****************                     * 
                *                                                         * 
                *                                                         * 
                *                       Abaqus 2021                       * 
                *                                                         * 
                *          BUILD ID: 2020_03_06-15.50.37 167380           * 
                *                                                         * 
                *                                                         * 
                *  Please make sure you are using                         * 
                *  release Abaqus 2021 manuals                            * 
                *  plus the notes accompanying this release.              * 
                *                                                         * 
                *                                                         * 
                *                                                         * 
                *                                                         * 
                *                                                         * 
                *   This program may not be used for commercial purposes  * 
                *           without payment of a commercial fee.          * 
                *                                                         * 
                * * * * * * * * * * * * * * * * * * * * * * * * * * * * * * 


 



     PROCESSING PART, INSTANCE, AND ASSEMBLY INFORMATION
   *******************************************************


     END PROCESSING PART, INSTANCE, AND ASSEMBLY INFORMATION
   ***********************************************************




     OPTIONS BEING PROCESSED
   ***************************


  *NODE
  *ELEMENT, TYPE=C3D8, ELSET=BONE
  *ELEMENT, TYPE=C3D8, ELSET=Elset320

 ***WARNING: ELEMENT LABEL 320 HAS BEEN USED MORE THAN ONCE. ONLY THE LAST 
             DEFINITION IS CONSIDERED.
  *ELEMENT, TYPE=C3D8, ELSET=Elset321

 ***WARNING: ELEMENT LABEL 321 HAS BEEN USED MORE THAN ONCE. ONLY THE LAST 
             DEFINITION IS CONSIDERED.
  *ELEMENT, TYPE=C3D8, ELSET=Elset322

 ***WARNING: ELEMENT LABEL 322 HAS BEEN USED MORE THAN ONCE. ONLY THE LAST 
             DEFINITION IS CONSIDERED.
  *ELEMENT, TYPE=C3D8, ELSET=Elset323

 ***WARNING: ELEMENT LABEL 323 HAS BEEN USED MORE THAN ONCE. ONLY THE LAST 
             DEFINITION IS CONSIDERED.
  *ELEMENT, TYPE=C3D8, ELSET=Elset324

 ***WARNING: ELEMENT LABEL 324 HAS BEEN USED MORE THAN ONCE. ONLY THE LAST 
             DEFINITION IS CONSIDERED.
  *ELEMENT, TYPE=C3D8, ELSET=Elset325

 ***WARNING: ELEMENT LABEL 325 HAS BEEN USED MORE THAN ONCE. ONLY THE LAST 
             DEFINITION IS CONSIDERED.
  *ELEMENT, TYPE=C3D8, ELSET=Elset326

 ***WARNING: ELEMENT LABEL 326 HAS BEEN USED MORE THAN ONCE. ONLY THE LAST 
             DEFINITION IS CONSIDERED.
  *ELEMENT, TYPE=C3D8, ELSET=Elset327

 ***WARNING: ELEMENT LABEL 327 HAS BEEN USED MORE THAN ONCE. ONLY THE LAST 
             DEFINITION IS CONSIDERED.
  *ELEMENT, TYPE=C3D8, ELSET=Elset328

 ***WARNING: ELEMENT LABEL 328 HAS BEEN USED MORE THAN ONCE. ONLY THE LAST 
             DEFINITION IS CONSIDERED.
  *ELEMENT, TYPE=C3D8, ELSET=Elset351

 ***WARNING: ELEMENT LABEL 351 HAS BEEN USED MORE THAN ONCE. ONLY THE LAST 
             DEFINITION IS CONSIDERED.
  *ELEMENT, TYPE=C3D8, ELSET=Elset352

 ***WARNING: ELEMENT LABEL 352 HAS BEEN USED MORE THAN ONCE. ONLY THE LAST 
             DEFINITION IS CONSIDERED.
  *ELEMENT, TYPE=C3D8, ELSET=Elset353

 ***WARNING: ELEMENT LABEL 353 HAS BEEN USED MORE THAN ONCE. ONLY THE LAST 
             DEFINITION IS CONSIDERED.
  *ELEMENT, TYPE=C3D8, ELSET=Elset354

 ***WARNING: ELEMENT LABEL 354 HAS BEEN USED MORE THAN ONCE. ONLY THE LAST 
             DEFINITION IS CONSIDERED.
  *ELEMENT, TYPE=C3D8, ELSET=Elset355

 ***WARNING: ELEMENT LABEL 355 HAS BEEN USED MORE THAN ONCE. ONLY THE LAST 
             DEFINITION IS CONSIDERED.
  *ELEMENT, TYPE=C3D8, ELSET=Elset356

 ***WARNING: ELEMENT LABEL 356 HAS BEEN USED MORE THAN ONCE. ONLY THE LAST 
             DEFINITION IS CONSIDERED.
  *ELEMENT, TYPE=C3D8, ELSET=Elset357

 ***WARNING: ELEMENT LABEL 357 HAS BEEN USED MORE THAN ONCE. ONLY THE LAST 
             DEFINITION IS CONSIDERED.
  *ELEMENT, TYPE=C3D8, ELSET=Elset358

 ***WARNING: ELEMENT LABEL 358 HAS BEEN USED MORE THAN ONCE. ONLY THE LAST 
             DEFINITION IS CONSIDERED.
  *ELEMENT, TYPE=C3D8, ELSET=Elset359

 ***WARNING: ELEMENT LABEL 359 HAS BEEN USED MORE THAN ONCE. ONLY THE LAST 
             DEFINITION IS CONSIDERED.
  *ELEMENT, TYPE=C3D8, ELSET=Elset360

 ***WARNING: ELEMENT LABEL 360 HAS BEEN USED MORE THAN ONCE. ONLY THE LAST 
             DEFINITION IS CONSIDERED.
  *ELEMENT, TYPE=C3D8, ELSET=Elset361

 ***WARNING: ELEMENT LABEL 361 HAS BEEN USED MORE THAN ONCE. ONLY THE LAST 
             DEFINITION IS CONSIDERED.
  *ELEMENT, TYPE=C3D8, ELSET=Elset362

 ***WARNING: ELEMENT LABEL 362 HAS BEEN USED MORE THAN ONCE. ONLY THE LAST 
             DEFINITION IS CONSIDERED.
  *ELEMENT, TYPE=C3D8, ELSET=Elset363

 ***WARNING: ELEMENT LABEL 363 HAS BEEN USED MORE THAN ONCE. ONLY THE LAST 
             DEFINITION IS CONSIDERED.
  *ELEMENT, TYPE=C3D8, ELSET=Elset383

 ***WARNING: ELEMENT LABEL 383 HAS BEEN USED MORE THAN ONCE. ONLY THE LAST 
             DEFINITION IS CONSIDERED.
  *ELEMENT, TYPE=C3D8, ELSET=Elset384

 ***WARNING: ELEMENT LABEL 384 HAS BEEN USED MORE THAN ONCE. ONLY THE LAST 
             DEFINITION IS CONSIDERED.
  *ELEMENT, TYPE=C3D8, ELSET=Elset385

 ***WARNING: ELEMENT LABEL 385 HAS BEEN USED MORE THAN ONCE. ONLY THE LAST 
             DEFINITION IS CONSIDERED.
  *ELEMENT, TYPE=C3D8, ELSET=Elset386

 ***WARNING: ELEMENT LABEL 386 HAS BEEN USED MORE THAN ONCE. ONLY THE LAST 
             DEFINITION IS CONSIDERED.
  *ELEMENT, TYPE=C3D8, ELSET=Elset387

 ***WARNING: ELEMENT LABEL 387 HAS BEEN USED MORE THAN ONCE. ONLY THE LAST 
             DEFINITION IS CONSIDERED.
  *ELEMENT, TYPE=C3D8, ELSET=Elset388

 ***WARNING: ELEMENT LABEL 388 HAS BEEN USED MORE THAN ONCE. ONLY THE LAST 
             DEFINITION IS CONSIDERED.
  *ELEMENT, TYPE=C3D8, ELSET=Elset389

 ***WARNING: ELEMENT LABEL 389 HAS BEEN USED MORE THAN ONCE. ONLY THE LAST 
             DEFINITION IS CONSIDERED.
  *ELEMENT, TYPE=C3D8, ELSET=Elset390

 ***WARNING: ELEMENT LABEL 390 HAS BEEN USED MORE THAN ONCE. ONLY THE LAST 
             DEFINITION IS CONSIDERED.
  *ELEMENT, TYPE=C3D8, ELSET=Elset391

 ***WARNING: ELEMENT LABEL 391 HAS BEEN USED MORE THAN ONCE. ONLY THE LAST 
             DEFINITION IS CONSIDERED.
  *ELEMENT, TYPE=C3D8, ELSET=Elset392

 ***WARNING: ELEMENT LABEL 392 HAS BEEN USED MORE THAN ONCE. ONLY THE LAST 
             DEFINITION IS CONSIDERED.
  *ELEMENT, TYPE=C3D8, ELSET=Elset393

 ***WARNING: ELEMENT LABEL 393 HAS BEEN USED MORE THAN ONCE. ONLY THE LAST 
             DEFINITION IS CONSIDERED.
  *ELEMENT, TYPE=C3D8, ELSET=Elset394

 ***WARNING: ELEMENT LABEL 394 HAS BEEN USED MORE THAN ONCE. ONLY THE LAST 
             DEFINITION IS CONSIDERED.
  *ELEMENT, TYPE=C3D8, ELSET=Elset395

 ***WARNING: ELEMENT LABEL 395 HAS BEEN USED MORE THAN ONCE. ONLY THE LAST 
             DEFINITION IS CONSIDERED.
  *ELEMENT, TYPE=C3D8, ELSET=Elset396

 ***WARNING: ELEMENT LABEL 396 HAS BEEN USED MORE THAN ONCE. ONLY THE LAST 
             DEFINITION IS CONSIDERED.
  *ELEMENT, TYPE=C3D8, ELSET=Elset397

 ***WARNING: ELEMENT LABEL 397 HAS BEEN USED MORE THAN ONCE. ONLY THE LAST 
             DEFINITION IS CONSIDERED.
  *ELEMENT, TYPE=C3D8, ELSET=Elset398

 ***WARNING: ELEMENT LABEL 398 HAS BEEN USED MORE THAN ONCE. ONLY THE LAST 
             DEFINITION IS CONSIDERED.
  *ELEMENT, TYPE=C3D8, ELSET=Elset416

 ***WARNING: ELEMENT LABEL 416 HAS BEEN USED MORE THAN ONCE. ONLY THE LAST 
             DEFINITION IS CONSIDERED.
  *ELEMENT, TYPE=C3D8, ELSET=Elset417

 ***WARNING: ELEMENT LABEL 417 HAS BEEN USED MORE THAN ONCE. ONLY THE LAST 
             DEFINITION IS CONSIDERED.
  *ELEMENT, TYPE=C3D8, ELSET=Elset418

 ***WARNING: ELEMENT LABEL 418 HAS BEEN USED MORE THAN ONCE. ONLY THE LAST 
             DEFINITION IS CONSIDERED.
  *ELEMENT, TYPE=C3D8, ELSET=Elset419

 ***WARNING: ELEMENT LABEL 419 HAS BEEN USED MORE THAN ONCE. ONLY THE LAST 
             DEFINITION IS CONSIDERED.
  *ELEMENT, TYPE=C3D8, ELSET=Elset420

 ***WARNING: ELEMENT LABEL 420 HAS BEEN USED MORE THAN ONCE. ONLY THE LAST 
             DEFINITION IS CONSIDERED.
  *ELEMENT, TYPE=C3D8, ELSET=Elset421

 ***WARNING: ELEMENT LABEL 421 HAS BEEN USED MORE THAN ONCE. ONLY THE LAST 
             DEFINITION IS CONSIDERED.
  *ELEMENT, TYPE=C3D8, ELSET=Elset422

 ***WARNING: ELEMENT LABEL 422 HAS BEEN USED MORE THAN ONCE. ONLY THE LAST 
             DEFINITION IS CONSIDERED.
  *ELEMENT, TYPE=C3D8, ELSET=Elset423

 ***WARNING: ELEMENT LABEL 423 HAS BEEN USED MORE THAN ONCE. ONLY THE LAST 
             DEFINITION IS CONSIDERED.
  *ELEMENT, TYPE=C3D8, ELSET=Elset424

 ***WARNING: ELEMENT LABEL 424 HAS BEEN USED MORE THAN ONCE. ONLY THE LAST 
             DEFINITION IS CONSIDERED.
  *ELEMENT, TYPE=C3D8, ELSET=Elset425

 ***WARNING: ELEMENT LABEL 425 HAS BEEN USED MORE THAN ONCE. ONLY THE LAST 
             DEFINITION IS CONSIDERED.
  *ELEMENT, TYPE=C3D8, ELSET=Elset426

 ***WARNING: ELEMENT LABEL 426 HAS BEEN USED MORE THAN ONCE. ONLY THE LAST 
             DEFINITION IS CONSIDERED.
  *ELEMENT, TYPE=C3D8, ELSET=Elset427

 ***WARNING: ELEMENT LABEL 427 HAS BEEN USED MORE THAN ONCE. ONLY THE LAST 
             DEFINITION IS CONSIDERED.
  *ELEMENT, TYPE=C3D8, ELSET=Elset428

 ***WARNING: ELEMENT LABEL 428 HAS BEEN USED MORE THAN ONCE. ONLY THE LAST 
             DEFINITION IS CONSIDERED.
  *ELEMENT, TYPE=C3D8, ELSET=Elset429

 ***WARNING: ELEMENT LABEL 429 HAS BEEN USED MORE THAN ONCE. ONLY THE LAST 
             DEFINITION IS CONSIDERED.
  *ELEMENT, TYPE=C3D8, ELSET=Elset430

 ***WARNING: ELEMENT LABEL 430 HAS BEEN USED MORE THAN ONCE. ONLY THE LAST 
             DEFINITION IS CONSIDERED.
  *ELEMENT, TYPE=C3D8, ELSET=Elset431

 ***WARNING: ELEMENT LABEL 431 HAS BEEN USED MORE THAN ONCE. ONLY THE LAST 
             DEFINITION IS CONSIDERED.
  *ELEMENT, TYPE=C3D8, ELSET=Elset432

 ***WARNING: ELEMENT LABEL 432 HAS BEEN USED MORE THAN ONCE. ONLY THE LAST 
             DEFINITION IS CONSIDERED.
  *ELEMENT, TYPE=C3D8, ELSET=Elset433

 ***WARNING: ELEMENT LABEL 433 HAS BEEN USED MORE THAN ONCE. ONLY THE LAST 
             DEFINITION IS CONSIDERED.
  *ELEMENT, TYPE=C3D8, ELSET=Elset448

 ***WARNING: ELEMENT LABEL 448 HAS BEEN USED MORE THAN ONCE. ONLY THE LAST 
             DEFINITION IS CONSIDERED.
  *ELEMENT, TYPE=C3D8, ELSET=Elset449

 ***WARNING: ELEMENT LABEL 449 HAS BEEN USED MORE THAN ONCE. ONLY THE LAST 
             DEFINITION IS CONSIDERED.
  *ELEMENT, TYPE=C3D8, ELSET=Elset450

 ***WARNING: ELEMENT LABEL 450 HAS BEEN USED MORE THAN ONCE. ONLY THE LAST 
             DEFINITION IS CONSIDERED.
  *ELEMENT, TYPE=C3D8, ELSET=Elset451

 ***WARNING: ELEMENT LABEL 451 HAS BEEN USED MORE THAN ONCE. ONLY THE LAST 
             DEFINITION IS CONSIDERED.
  *ELEMENT, TYPE=C3D8, ELSET=Elset452

 ***WARNING: ELEMENT LABEL 452 HAS BEEN USED MORE THAN ONCE. ONLY THE LAST 
             DEFINITION IS CONSIDERED.
  *ELEMENT, TYPE=C3D8, ELSET=Elset453

 ***WARNING: ELEMENT LABEL 453 HAS BEEN USED MORE THAN ONCE. ONLY THE LAST 
             DEFINITION IS CONSIDERED.
  *ELEMENT, TYPE=C3D8, ELSET=Elset454

 ***WARNING: ELEMENT LABEL 454 HAS BEEN USED MORE THAN ONCE. ONLY THE LAST 
             DEFINITION IS CONSIDERED.
  *ELEMENT, TYPE=C3D8, ELSET=Elset455

 ***WARNING: ELEMENT LABEL 455 HAS BEEN USED MORE THAN ONCE. ONLY THE LAST 
             DEFINITION IS CONSIDERED.
  *ELEMENT, TYPE=C3D8, ELSET=Elset456

 ***WARNING: ELEMENT LABEL 456 HAS BEEN USED MORE THAN ONCE. ONLY THE LAST 
             DEFINITION IS CONSIDERED.
  *ELEMENT, TYPE=C3D8, ELSET=Elset457

 ***WARNING: ELEMENT LABEL 457 HAS BEEN USED MORE THAN ONCE. ONLY THE LAST 
             DEFINITION IS CONSIDERED.
  *ELEMENT, TYPE=C3D8, ELSET=Elset458

 ***WARNING: ELEMENT LABEL 458 HAS BEEN USED MORE THAN ONCE. ONLY THE LAST 
             DEFINITION IS CONSIDERED.
  *ELEMENT, TYPE=C3D8, ELSET=Elset459

 ***WARNING: ELEMENT LABEL 459 HAS BEEN USED MORE THAN ONCE. ONLY THE LAST 
             DEFINITION IS CONSIDERED.
  *ELEMENT, TYPE=C3D8, ELSET=Elset460

 ***WARNING: ELEMENT LABEL 460 HAS BEEN USED MORE THAN ONCE. ONLY THE LAST 
             DEFINITION IS CONSIDERED.
  *ELEMENT, TYPE=C3D8, ELSET=Elset461

 ***WARNING: ELEMENT LABEL 461 HAS BEEN USED MORE THAN ONCE. ONLY THE LAST 
             DEFINITION IS CONSIDERED.
  *ELEMENT, TYPE=C3D8, ELSET=Elset462

 ***WARNING: ELEMENT LABEL 462 HAS BEEN USED MORE THAN ONCE. ONLY THE LAST 
             DEFINITION IS CONSIDERED.
  *ELEMENT, TYPE=C3D8, ELSET=Elset463

 ***WARNING: ELEMENT LABEL 463 HAS BEEN USED MORE THAN ONCE. ONLY THE LAST 
             DEFINITION IS CONSIDERED.
  *ELEMENT, TYPE=C3D8, ELSET=Elset464

 ***WARNING: ELEMENT LABEL 464 HAS BEEN USED MORE THAN ONCE. ONLY THE LAST 
             DEFINITION IS CONSIDERED.
  *ELEMENT, TYPE=C3D8, ELSET=Elset465

 ***WARNING: ELEMENT LABEL 465 HAS BEEN USED MORE THAN ONCE. ONLY THE LAST 
             DEFINITION IS CONSIDERED.
  *ELEMENT, TYPE=C3D8, ELSET=Elset466

 ***WARNING: ELEMENT LABEL 466 HAS BEEN USED MORE THAN ONCE. ONLY THE LAST 
             DEFINITION IS CONSIDERED.
  *ELEMENT, TYPE=C3D8, ELSET=Elset467

 ***WARNING: ELEMENT LABEL 467 HAS BEEN USED MORE THAN ONCE. ONLY THE LAST 
             DEFINITION IS CONSIDERED.
  *ELEMENT, TYPE=C3D8, ELSET=Elset481

 ***WARNING: ELEMENT LABEL 481 HAS BEEN USED MORE THAN ONCE. ONLY THE LAST 
             DEFINITION IS CONSIDERED.
  *ELEMENT, TYPE=C3D8, ELSET=Elset482

 ***WARNING: ELEMENT LABEL 482 HAS BEEN USED MORE THAN ONCE. ONLY THE LAST 
             DEFINITION IS CONSIDERED.
  *ELEMENT, TYPE=C3D8, ELSET=Elset483

 ***WARNING: ELEMENT LABEL 483 HAS BEEN USED MORE THAN ONCE. ONLY THE LAST 
             DEFINITION IS CONSIDERED.
  *ELEMENT, TYPE=C3D8, ELSET=Elset484

 ***WARNING: ELEMENT LABEL 484 HAS BEEN USED MORE THAN ONCE. ONLY THE LAST 
             DEFINITION IS CONSIDERED.
  *ELEMENT, TYPE=C3D8, ELSET=Elset485

 ***WARNING: ELEMENT LABEL 485 HAS BEEN USED MORE THAN ONCE. ONLY THE LAST 
             DEFINITION IS CONSIDERED.
  *ELEMENT, TYPE=C3D8, ELSET=Elset486

 ***WARNING: ELEMENT LABEL 486 HAS BEEN USED MORE THAN ONCE. ONLY THE LAST 
             DEFINITION IS CONSIDERED.
  *ELEMENT, TYPE=C3D8, ELSET=Elset487

 ***WARNING: ELEMENT LABEL 487 HAS BEEN USED MORE THAN ONCE. ONLY THE LAST 
             DEFINITION IS CONSIDERED.
  *ELEMENT, TYPE=C3D8, ELSET=Elset488

 ***WARNING: ELEMENT LABEL 488 HAS BEEN USED MORE THAN ONCE. ONLY THE LAST 
             DEFINITION IS CONSIDERED.
  *ELEMENT, TYPE=C3D8, ELSET=Elset489

 ***WARNING: ELEMENT LABEL 489 HAS BEEN USED MORE THAN ONCE. ONLY THE LAST 
             DEFINITION IS CONSIDERED.
  *ELEMENT, TYPE=C3D8, ELSET=Elset490

 ***WARNING: ELEMENT LABEL 490 HAS BEEN USED MORE THAN ONCE. ONLY THE LAST 
             DEFINITION IS CONSIDERED.
  *ELEMENT, TYPE=C3D8, ELSET=Elset491

 ***WARNING: ELEMENT LABEL 491 HAS BEEN USED MORE THAN ONCE. ONLY THE LAST 
             DEFINITION IS CONSIDERED.
  *ELEMENT, TYPE=C3D8, ELSET=Elset492

 ***WARNING: ELEMENT LABEL 492 HAS BEEN USED MORE THAN ONCE. ONLY THE LAST 
             DEFINITION IS CONSIDERED.
  *ELEMENT, TYPE=C3D8, ELSET=Elset493

 ***WARNING: ELEMENT LABEL 493 HAS BEEN USED MORE THAN ONCE. ONLY THE LAST 
             DEFINITION IS CONSIDERED.
  *ELEMENT, TYPE=C3D8, ELSET=Elset494

 ***WARNING: ELEMENT LABEL 494 HAS BEEN USED MORE THAN ONCE. ONLY THE LAST 
             DEFINITION IS CONSIDERED.
  *ELEMENT, TYPE=C3D8, ELSET=Elset495

 ***WARNING: ELEMENT LABEL 495 HAS BEEN USED MORE THAN ONCE. ONLY THE LAST 
             DEFINITION IS CONSIDERED.
  *ELEMENT, TYPE=C3D8, ELSET=Elset496

 ***WARNING: ELEMENT LABEL 496 HAS BEEN USED MORE THAN ONCE. ONLY THE LAST 
             DEFINITION IS CONSIDERED.
  *ELEMENT, TYPE=C3D8, ELSET=Elset497

 ***WARNING: ELEMENT LABEL 497 HAS BEEN USED MORE THAN ONCE. ONLY THE LAST 
             DEFINITION IS CONSIDERED.
  *ELEMENT, TYPE=C3D8, ELSET=Elset498

 ***WARNING: ELEMENT LABEL 498 HAS BEEN USED MORE THAN ONCE. ONLY THE LAST 
             DEFINITION IS CONSIDERED.
  *ELEMENT, TYPE=C3D8, ELSET=Elset499

 ***WARNING: ELEMENT LABEL 499 HAS BEEN USED MORE THAN ONCE. ONLY THE LAST 
             DEFINITION IS CONSIDERED.
  *ELEMENT, TYPE=C3D8, ELSET=Elset500

 ***WARNING: ELEMENT LABEL 500 HAS BEEN USED MORE THAN ONCE. ONLY THE LAST 
             DEFINITION IS CONSIDERED.
  *ELEMENT, TYPE=C3D8, ELSET=Elset501

 ***WARNING: ELEMENT LABEL 501 HAS BEEN USED MORE THAN ONCE. ONLY THE LAST 
             DEFINITION IS CONSIDERED.
  *ELEMENT, TYPE=C3D8, ELSET=Elset502

 ***WARNING: ELEMENT LABEL 502 HAS BEEN USED MORE THAN ONCE. ONLY THE LAST 
             DEFINITION IS CONSIDERED.
  *ELEMENT, TYPE=C3D8, ELSET=Elset515

 ***WARNING: ELEMENT LABEL 515 HAS BEEN USED MORE THAN ONCE. ONLY THE LAST 
             DEFINITION IS CONSIDERED.
  *ELEMENT, TYPE=C3D8, ELSET=Elset516

 ***WARNING: ELEMENT LABEL 516 HAS BEEN USED MORE THAN ONCE. ONLY THE LAST 
             DEFINITION IS CONSIDERED.
  *ELEMENT, TYPE=C3D8, ELSET=Elset517

 ***WARNING: ELEMENT LABEL 517 HAS BEEN USED MORE THAN ONCE. ONLY THE LAST 
             DEFINITION IS CONSIDERED.
  *ELEMENT, TYPE=C3D8, ELSET=Elset518

 ***WARNING: ELEMENT LABEL 518 HAS BEEN USED MORE THAN ONCE. ONLY THE LAST 
             DEFINITION IS CONSIDERED.
  *ELEMENT, TYPE=C3D8, ELSET=Elset519

 ***WARNING: ELEMENT LABEL 519 HAS BEEN USED MORE THAN ONCE. ONLY THE LAST 
             DEFINITION IS CONSIDERED.
  *ELEMENT, TYPE=C3D8, ELSET=Elset520

 ***WARNING: ELEMENT LABEL 520 HAS BEEN USED MORE THAN ONCE. ONLY THE LAST 
             DEFINITION IS CONSIDERED.
  *ELEMENT, TYPE=C3D8, ELSET=Elset521

 ***WARNING: ELEMENT LABEL 521 HAS BEEN USED MORE THAN ONCE. ONLY THE LAST 
             DEFINITION IS CONSIDERED.
  *ELEMENT, TYPE=C3D8, ELSET=Elset522

 ***WARNING: ELEMENT LABEL 522 HAS BEEN USED MORE THAN ONCE. ONLY THE LAST 
             DEFINITION IS CONSIDERED.
  *ELEMENT, TYPE=C3D8, ELSET=Elset523

 ***WARNING: ELEMENT LABEL 523 HAS BEEN USED MORE THAN ONCE. ONLY THE LAST 
             DEFINITION IS CONSIDERED.
  *ELEMENT, TYPE=C3D8, ELSET=Elset524

 ***WARNING: ELEMENT LABEL 524 HAS BEEN USED MORE THAN ONCE. ONLY THE LAST 
             DEFINITION IS CONSIDERED.
  *ELEMENT, TYPE=C3D8, ELSET=Elset525

 ***WARNING: ELEMENT LABEL 525 HAS BEEN USED MORE THAN ONCE. ONLY THE LAST 
             DEFINITION IS CONSIDERED.
  *ELEMENT, TYPE=C3D8, ELSET=Elset526

 ***WARNING: ELEMENT LABEL 526 HAS BEEN USED MORE THAN ONCE. ONLY THE LAST 
             DEFINITION IS CONSIDERED.
  *ELEMENT, TYPE=C3D8, ELSET=Elset527

 ***WARNING: ELEMENT LABEL 527 HAS BEEN USED MORE THAN ONCE. ONLY THE LAST 
             DEFINITION IS CONSIDERED.
  *ELEMENT, TYPE=C3D8, ELSET=Elset528

 ***WARNING: ELEMENT LABEL 528 HAS BEEN USED MORE THAN ONCE. ONLY THE LAST 
             DEFINITION IS CONSIDERED.
  *ELEMENT, TYPE=C3D8, ELSET=Elset529

 ***WARNING: ELEMENT LABEL 529 HAS BEEN USED MORE THAN ONCE. ONLY THE LAST 
             DEFINITION IS CONSIDERED.
  *ELEMENT, TYPE=C3D8, ELSET=Elset530

 ***WARNING: ELEMENT LABEL 530 HAS BEEN USED MORE THAN ONCE. ONLY THE LAST 
             DEFINITION IS CONSIDERED.
  *ELEMENT, TYPE=C3D8, ELSET=Elset531

 ***WARNING: ELEMENT LABEL 531 HAS BEEN USED MORE THAN ONCE. ONLY THE LAST 
             DEFINITION IS CONSIDERED.
  *ELEMENT, TYPE=C3D8, ELSET=Elset532

 ***WARNING: ELEMENT LABEL 532 HAS BEEN USED MORE THAN ONCE. ONLY THE LAST 
             DEFINITION IS CONSIDERED.
  *ELEMENT, TYPE=C3D8, ELSET=Elset533

 ***WARNING: ELEMENT LABEL 533 HAS BEEN USED MORE THAN ONCE. ONLY THE LAST 
             DEFINITION IS CONSIDERED.
  *ELEMENT, TYPE=C3D8, ELSET=Elset534

 ***WARNING: ELEMENT LABEL 534 HAS BEEN USED MORE THAN ONCE. ONLY THE LAST 
             DEFINITION IS CONSIDERED.
  *ELEMENT, TYPE=C3D8, ELSET=Elset535

 ***WARNING: ELEMENT LABEL 535 HAS BEEN USED MORE THAN ONCE. ONLY THE LAST 
             DEFINITION IS CONSIDERED.
  *ELEMENT, TYPE=C3D8, ELSET=Elset536

 ***WARNING: ELEMENT LABEL 536 HAS BEEN USED MORE THAN ONCE. ONLY THE LAST 
             DEFINITION IS CONSIDERED.
  *ELEMENT, TYPE=C3D8, ELSET=Elset549

 ***WARNING: ELEMENT LABEL 549 HAS BEEN USED MORE THAN ONCE. ONLY THE LAST 
             DEFINITION IS CONSIDERED.
  *ELEMENT, TYPE=C3D8, ELSET=Elset550

 ***WARNING: ELEMENT LABEL 550 HAS BEEN USED MORE THAN ONCE. ONLY THE LAST 
             DEFINITION IS CONSIDERED.
  *ELEMENT, TYPE=C3D8, ELSET=Elset551

 ***WARNING: ELEMENT LABEL 551 HAS BEEN USED MORE THAN ONCE. ONLY THE LAST 
             DEFINITION IS CONSIDERED.
  *ELEMENT, TYPE=C3D8, ELSET=Elset552

 ***WARNING: ELEMENT LABEL 552 HAS BEEN USED MORE THAN ONCE. ONLY THE LAST 
             DEFINITION IS CONSIDERED.
  *ELEMENT, TYPE=C3D8, ELSET=Elset553

 ***WARNING: ELEMENT LABEL 553 HAS BEEN USED MORE THAN ONCE. ONLY THE LAST 
             DEFINITION IS CONSIDERED.
  *ELEMENT, TYPE=C3D8, ELSET=Elset554

 ***WARNING: ELEMENT LABEL 554 HAS BEEN USED MORE THAN ONCE. ONLY THE LAST 
             DEFINITION IS CONSIDERED.
  *ELEMENT, TYPE=C3D8, ELSET=Elset555

 ***WARNING: ELEMENT LABEL 555 HAS BEEN USED MORE THAN ONCE. ONLY THE LAST 
             DEFINITION IS CONSIDERED.
  *ELEMENT, TYPE=C3D8, ELSET=Elset556

 ***WARNING: ELEMENT LABEL 556 HAS BEEN USED MORE THAN ONCE. ONLY THE LAST 
             DEFINITION IS CONSIDERED.
  *ELEMENT, TYPE=C3D8, ELSET=Elset557

 ***WARNING: ELEMENT LABEL 557 HAS BEEN USED MORE THAN ONCE. ONLY THE LAST 
             DEFINITION IS CONSIDERED.
  *ELEMENT, TYPE=C3D8, ELSET=Elset558

 ***WARNING: ELEMENT LABEL 558 HAS BEEN USED MORE THAN ONCE. ONLY THE LAST 
             DEFINITION IS CONSIDERED.
  *ELEMENT, TYPE=C3D8, ELSET=Elset559

 ***WARNING: ELEMENT LABEL 559 HAS BEEN USED MORE THAN ONCE. ONLY THE LAST 
             DEFINITION IS CONSIDERED.
  *ELEMENT, TYPE=C3D8, ELSET=Elset560

 ***WARNING: ELEMENT LABEL 560 HAS BEEN USED MORE THAN ONCE. ONLY THE LAST 
             DEFINITION IS CONSIDERED.
  *ELEMENT, TYPE=C3D8, ELSET=Elset561

 ***WARNING: ELEMENT LABEL 561 HAS BEEN USED MORE THAN ONCE. ONLY THE LAST 
             DEFINITION IS CONSIDERED.
  *ELEMENT, TYPE=C3D8, ELSET=Elset562

 ***WARNING: ELEMENT LABEL 562 HAS BEEN USED MORE THAN ONCE. ONLY THE LAST 
             DEFINITION IS CONSIDERED.
  *ELEMENT, TYPE=C3D8, ELSET=Elset563

 ***WARNING: ELEMENT LABEL 563 HAS BEEN USED MORE THAN ONCE. ONLY THE LAST 
             DEFINITION IS CONSIDERED.
  *ELEMENT, TYPE=C3D8, ELSET=Elset564

 ***WARNING: ELEMENT LABEL 564 HAS BEEN USED MORE THAN ONCE. ONLY THE LAST 
             DEFINITION IS CONSIDERED.
  *ELEMENT, TYPE=C3D8, ELSET=Elset565

 ***WARNING: ELEMENT LABEL 565 HAS BEEN USED MORE THAN ONCE. ONLY THE LAST 
             DEFINITION IS CONSIDERED.
  *ELEMENT, TYPE=C3D8, ELSET=Elset566

 ***WARNING: ELEMENT LABEL 566 HAS BEEN USED MORE THAN ONCE. ONLY THE LAST 
             DEFINITION IS CONSIDERED.
  *ELEMENT, TYPE=C3D8, ELSET=Elset567

 ***WARNING: ELEMENT LABEL 567 HAS BEEN USED MORE THAN ONCE. ONLY THE LAST 
             DEFINITION IS CONSIDERED.
  *ELEMENT, TYPE=C3D8, ELSET=Elset568

 ***WARNING: ELEMENT LABEL 568 HAS BEEN USED MORE THAN ONCE. ONLY THE LAST 
             DEFINITION IS CONSIDERED.
  *ELEMENT, TYPE=C3D8, ELSET=Elset569

 ***WARNING: ELEMENT LABEL 569 HAS BEEN USED MORE THAN ONCE. ONLY THE LAST 
             DEFINITION IS CONSIDERED.
  *ELEMENT, TYPE=C3D8, ELSET=Elset570

 ***WARNING: ELEMENT LABEL 570 HAS BEEN USED MORE THAN ONCE. ONLY THE LAST 
             DEFINITION IS CONSIDERED.
  *ELEMENT, TYPE=C3D8, ELSET=Elset571

 ***WARNING: ELEMENT LABEL 571 HAS BEEN USED MORE THAN ONCE. ONLY THE LAST 
             DEFINITION IS CONSIDERED.
  *ELEMENT, TYPE=C3D8, ELSET=Elset583

 ***WARNING: ELEMENT LABEL 583 HAS BEEN USED MORE THAN ONCE. ONLY THE LAST 
             DEFINITION IS CONSIDERED.
  *ELEMENT, TYPE=C3D8, ELSET=Elset584

 ***WARNING: ELEMENT LABEL 584 HAS BEEN USED MORE THAN ONCE. ONLY THE LAST 
             DEFINITION IS CONSIDERED.
  *ELEMENT, TYPE=C3D8, ELSET=Elset585

 ***WARNING: ELEMENT LABEL 585 HAS BEEN USED MORE THAN ONCE. ONLY THE LAST 
             DEFINITION IS CONSIDERED.
  *ELEMENT, TYPE=C3D8, ELSET=Elset586

 ***WARNING: ELEMENT LABEL 586 HAS BEEN USED MORE THAN ONCE. ONLY THE LAST 
             DEFINITION IS CONSIDERED.
  *ELEMENT, TYPE=C3D8, ELSET=Elset587

 ***WARNING: ELEMENT LABEL 587 HAS BEEN USED MORE THAN ONCE. ONLY THE LAST 
             DEFINITION IS CONSIDERED.
  *ELEMENT, TYPE=C3D8, ELSET=Elset588

 ***WARNING: ELEMENT LABEL 588 HAS BEEN USED MORE THAN ONCE. ONLY THE LAST 
             DEFINITION IS CONSIDERED.
  *ELEMENT, TYPE=C3D8, ELSET=Elset589

 ***WARNING: ELEMENT LABEL 589 HAS BEEN USED MORE THAN ONCE. ONLY THE LAST 
             DEFINITION IS CONSIDERED.
  *ELEMENT, TYPE=C3D8, ELSET=Elset590

 ***WARNING: ELEMENT LABEL 590 HAS BEEN USED MORE THAN ONCE. ONLY THE LAST 
             DEFINITION IS CONSIDERED.
  *ELEMENT, TYPE=C3D8, ELSET=Elset591

 ***WARNING: ELEMENT LABEL 591 HAS BEEN USED MORE THAN ONCE. ONLY THE LAST 
             DEFINITION IS CONSIDERED.
  *ELEMENT, TYPE=C3D8, ELSET=Elset592

 ***WARNING: ELEMENT LABEL 592 HAS BEEN USED MORE THAN ONCE. ONLY THE LAST 
             DEFINITION IS CONSIDERED.
  *ELEMENT, TYPE=C3D8, ELSET=Elset593

 ***WARNING: ELEMENT LABEL 593 HAS BEEN USED MORE THAN ONCE. ONLY THE LAST 
             DEFINITION IS CONSIDERED.
  *ELEMENT, TYPE=C3D8, ELSET=Elset594

 ***WARNING: ELEMENT LABEL 594 HAS BEEN USED MORE THAN ONCE. ONLY THE LAST 
             DEFINITION IS CONSIDERED.
  *ELEMENT, TYPE=C3D8, ELSET=Elset595

 ***WARNING: ELEMENT LABEL 595 HAS BEEN USED MORE THAN ONCE. ONLY THE LAST 
             DEFINITION IS CONSIDERED.
  *ELEMENT, TYPE=C3D8, ELSET=Elset596

 ***WARNING: ELEMENT LABEL 596 HAS BEEN USED MORE THAN ONCE. ONLY THE LAST 
             DEFINITION IS CONSIDERED.
  *ELEMENT, TYPE=C3D8, ELSET=Elset597

 ***WARNING: ELEMENT LABEL 597 HAS BEEN USED MORE THAN ONCE. ONLY THE LAST 
             DEFINITION IS CONSIDERED.
  *ELEMENT, TYPE=C3D8, ELSET=Elset598

 ***WARNING: ELEMENT LABEL 598 HAS BEEN USED MORE THAN ONCE. ONLY THE LAST 
             DEFINITION IS CONSIDERED.
  *ELEMENT, TYPE=C3D8, ELSET=Elset599

 ***WARNING: ELEMENT LABEL 599 HAS BEEN USED MORE THAN ONCE. ONLY THE LAST 
             DEFINITION IS CONSIDERED.
  *ELEMENT, TYPE=C3D8, ELSET=Elset600

 ***WARNING: ELEMENT LABEL 600 HAS BEEN USED MORE THAN ONCE. ONLY THE LAST 
             DEFINITION IS CONSIDERED.
  *ELEMENT, TYPE=C3D8, ELSET=Elset601

 ***WARNING: ELEMENT LABEL 601 HAS BEEN USED MORE THAN ONCE. ONLY THE LAST 
             DEFINITION IS CONSIDERED.
  *ELEMENT, TYPE=C3D8, ELSET=Elset602

 ***WARNING: ELEMENT LABEL 602 HAS BEEN USED MORE THAN ONCE. ONLY THE LAST 
             DEFINITION IS CONSIDERED.
  *ELEMENT, TYPE=C3D8, ELSET=Elset603

 ***WARNING: ELEMENT LABEL 603 HAS BEEN USED MORE THAN ONCE. ONLY THE LAST 
             DEFINITION IS CONSIDERED.
  *ELEMENT, TYPE=C3D8, ELSET=Elset604

 ***WARNING: ELEMENT LABEL 604 HAS BEEN USED MORE THAN ONCE. ONLY THE LAST 
             DEFINITION IS CONSIDERED.
  *ELEMENT, TYPE=C3D8, ELSET=Elset605

 ***WARNING: ELEMENT LABEL 605 HAS BEEN USED MORE THAN ONCE. ONLY THE LAST 
             DEFINITION IS CONSIDERED.
  *ELEMENT, TYPE=C3D8, ELSET=Elset617

 ***WARNING: ELEMENT LABEL 617 HAS BEEN USED MORE THAN ONCE. ONLY THE LAST 
             DEFINITION IS CONSIDERED.
  *ELEMENT, TYPE=C3D8, ELSET=Elset618

 ***WARNING: ELEMENT LABEL 618 HAS BEEN USED MORE THAN ONCE. ONLY THE LAST 
             DEFINITION IS CONSIDERED.
  *ELEMENT, TYPE=C3D8, ELSET=Elset619

 ***WARNING: ELEMENT LABEL 619 HAS BEEN USED MORE THAN ONCE. ONLY THE LAST 
             DEFINITION IS CONSIDERED.
  *ELEMENT, TYPE=C3D8, ELSET=Elset620

 ***WARNING: ELEMENT LABEL 620 HAS BEEN USED MORE THAN ONCE. ONLY THE LAST 
             DEFINITION IS CONSIDERED.
  *ELEMENT, TYPE=C3D8, ELSET=Elset621

 ***WARNING: ELEMENT LABEL 621 HAS BEEN USED MORE THAN ONCE. ONLY THE LAST 
             DEFINITION IS CONSIDERED.
  *ELEMENT, TYPE=C3D8, ELSET=Elset622

 ***WARNING: ELEMENT LABEL 622 HAS BEEN USED MORE THAN ONCE. ONLY THE LAST 
             DEFINITION IS CONSIDERED.
  *ELEMENT, TYPE=C3D8, ELSET=Elset623

 ***WARNING: ELEMENT LABEL 623 HAS BEEN USED MORE THAN ONCE. ONLY THE LAST 
             DEFINITION IS CONSIDERED.
  *ELEMENT, TYPE=C3D8, ELSET=Elset624

 ***WARNING: ELEMENT LABEL 624 HAS BEEN USED MORE THAN ONCE. ONLY THE LAST 
             DEFINITION IS CONSIDERED.
  *ELEMENT, TYPE=C3D8, ELSET=Elset625

 ***WARNING: ELEMENT LABEL 625 HAS BEEN USED MORE THAN ONCE. ONLY THE LAST 
             DEFINITION IS CONSIDERED.
  *ELEMENT, TYPE=C3D8, ELSET=Elset626

 ***WARNING: ELEMENT LABEL 626 HAS BEEN USED MORE THAN ONCE. ONLY THE LAST 
             DEFINITION IS CONSIDERED.
  *ELEMENT, TYPE=C3D8, ELSET=Elset627

 ***WARNING: ELEMENT LABEL 627 HAS BEEN USED MORE THAN ONCE. ONLY THE LAST 
             DEFINITION IS CONSIDERED.
  *ELEMENT, TYPE=C3D8, ELSET=Elset628

 ***WARNING: ELEMENT LABEL 628 HAS BEEN USED MORE THAN ONCE. ONLY THE LAST 
             DEFINITION IS CONSIDERED.
  *ELEMENT, TYPE=C3D8, ELSET=Elset629

 ***WARNING: ELEMENT LABEL 629 HAS BEEN USED MORE THAN ONCE. ONLY THE LAST 
             DEFINITION IS CONSIDERED.
  *ELEMENT, TYPE=C3D8, ELSET=Elset630

 ***WARNING: ELEMENT LABEL 630 HAS BEEN USED MORE THAN ONCE. ONLY THE LAST 
             DEFINITION IS CONSIDERED.
  *ELEMENT, TYPE=C3D8, ELSET=Elset631

 ***WARNING: ELEMENT LABEL 631 HAS BEEN USED MORE THAN ONCE. ONLY THE LAST 
             DEFINITION IS CONSIDERED.
  *ELEMENT, TYPE=C3D8, ELSET=Elset632

 ***WARNING: ELEMENT LABEL 632 HAS BEEN USED MORE THAN ONCE. ONLY THE LAST 
             DEFINITION IS CONSIDERED.
  *ELEMENT, TYPE=C3D8, ELSET=Elset633

 ***WARNING: ELEMENT LABEL 633 HAS BEEN USED MORE THAN ONCE. ONLY THE LAST 
             DEFINITION IS CONSIDERED.
  *ELEMENT, TYPE=C3D8, ELSET=Elset634

 ***WARNING: ELEMENT LABEL 634 HAS BEEN USED MORE THAN ONCE. ONLY THE LAST 
             DEFINITION IS CONSIDERED.
  *ELEMENT, TYPE=C3D8, ELSET=Elset635

 ***WARNING: ELEMENT LABEL 635 HAS BEEN USED MORE THAN ONCE. ONLY THE LAST 
             DEFINITION IS CONSIDERED.
  *ELEMENT, TYPE=C3D8, ELSET=Elset636

 ***WARNING: ELEMENT LABEL 636 HAS BEEN USED MORE THAN ONCE. ONLY THE LAST 
             DEFINITION IS CONSIDERED.
  *ELEMENT, TYPE=C3D8, ELSET=Elset637

 ***WARNING: ELEMENT LABEL 637 HAS BEEN USED MORE THAN ONCE. ONLY THE LAST 
             DEFINITION IS CONSIDERED.
  *ELEMENT, TYPE=C3D8, ELSET=Elset638

 ***WARNING: ELEMENT LABEL 638 HAS BEEN USED MORE THAN ONCE. ONLY THE LAST 
             DEFINITION IS CONSIDERED.
  *ELEMENT, TYPE=C3D8, ELSET=Elset639

 ***WARNING: ELEMENT LABEL 639 HAS BEEN USED MORE THAN ONCE. ONLY THE LAST 
             DEFINITION IS CONSIDERED.
  *ELEMENT, TYPE=C3D8, ELSET=Elset651

 ***WARNING: ELEMENT LABEL 651 HAS BEEN USED MORE THAN ONCE. ONLY THE LAST 
             DEFINITION IS CONSIDERED.
  *ELEMENT, TYPE=C3D8, ELSET=Elset652

 ***WARNING: ELEMENT LABEL 652 HAS BEEN USED MORE THAN ONCE. ONLY THE LAST 
             DEFINITION IS CONSIDERED.
  *ELEMENT, TYPE=C3D8, ELSET=Elset653

 ***WARNING: ELEMENT LABEL 653 HAS BEEN USED MORE THAN ONCE. ONLY THE LAST 
             DEFINITION IS CONSIDERED.
  *ELEMENT, TYPE=C3D8, ELSET=Elset654

 ***WARNING: ELEMENT LABEL 654 HAS BEEN USED MORE THAN ONCE. ONLY THE LAST 
             DEFINITION IS CONSIDERED.
  *ELEMENT, TYPE=C3D8, ELSET=Elset655

 ***WARNING: ELEMENT LABEL 655 HAS BEEN USED MORE THAN ONCE. ONLY THE LAST 
             DEFINITION IS CONSIDERED.
  *ELEMENT, TYPE=C3D8, ELSET=Elset656

 ***WARNING: ELEMENT LABEL 656 HAS BEEN USED MORE THAN ONCE. ONLY THE LAST 
             DEFINITION IS CONSIDERED.
  *ELEMENT, TYPE=C3D8, ELSET=Elset657

 ***WARNING: ELEMENT LABEL 657 HAS BEEN USED MORE THAN ONCE. ONLY THE LAST 
             DEFINITION IS CONSIDERED.
  *ELEMENT, TYPE=C3D8, ELSET=Elset658

 ***WARNING: ELEMENT LABEL 658 HAS BEEN USED MORE THAN ONCE. ONLY THE LAST 
             DEFINITION IS CONSIDERED.
  *ELEMENT, TYPE=C3D8, ELSET=Elset659

 ***WARNING: ELEMENT LABEL 659 HAS BEEN USED MORE THAN ONCE. ONLY THE LAST 
             DEFINITION IS CONSIDERED.
  *ELEMENT, TYPE=C3D8, ELSET=Elset660

 ***WARNING: ELEMENT LABEL 660 HAS BEEN USED MORE THAN ONCE. ONLY THE LAST 
             DEFINITION IS CONSIDERED.
  *ELEMENT, TYPE=C3D8, ELSET=Elset661

 ***WARNING: ELEMENT LABEL 661 HAS BEEN USED MORE THAN ONCE. ONLY THE LAST 
             DEFINITION IS CONSIDERED.
  *ELEMENT, TYPE=C3D8, ELSET=Elset662

 ***WARNING: ELEMENT LABEL 662 HAS BEEN USED MORE THAN ONCE. ONLY THE LAST 
             DEFINITION IS CONSIDERED.
  *ELEMENT, TYPE=C3D8, ELSET=Elset663

 ***WARNING: ELEMENT LABEL 663 HAS BEEN USED MORE THAN ONCE. ONLY THE LAST 
             DEFINITION IS CONSIDERED.
  *ELEMENT, TYPE=C3D8, ELSET=Elset664

 ***WARNING: ELEMENT LABEL 664 HAS BEEN USED MORE THAN ONCE. ONLY THE LAST 
             DEFINITION IS CONSIDERED.
  *ELEMENT, TYPE=C3D8, ELSET=Elset665

 ***WARNING: ELEMENT LABEL 665 HAS BEEN USED MORE THAN ONCE. ONLY THE LAST 
             DEFINITION IS CONSIDERED.
  *ELEMENT, TYPE=C3D8, ELSET=Elset666

 ***WARNING: ELEMENT LABEL 666 HAS BEEN USED MORE THAN ONCE. ONLY THE LAST 
             DEFINITION IS CONSIDERED.
  *ELEMENT, TYPE=C3D8, ELSET=Elset667

 ***WARNING: ELEMENT LABEL 667 HAS BEEN USED MORE THAN ONCE. ONLY THE LAST 
             DEFINITION IS CONSIDERED.
  *ELEMENT, TYPE=C3D8, ELSET=Elset668

 ***WARNING: ELEMENT LABEL 668 HAS BEEN USED MORE THAN ONCE. ONLY THE LAST 
             DEFINITION IS CONSIDERED.
  *ELEMENT, TYPE=C3D8, ELSET=Elset669

 ***WARNING: ELEMENT LABEL 669 HAS BEEN USED MORE THAN ONCE. ONLY THE LAST 
             DEFINITION IS CONSIDERED.
  *ELEMENT, TYPE=C3D8, ELSET=Elset670

 ***WARNING: ELEMENT LABEL 670 HAS BEEN USED MORE THAN ONCE. ONLY THE LAST 
             DEFINITION IS CONSIDERED.
  *ELEMENT, TYPE=C3D8, ELSET=Elset671

 ***WARNING: ELEMENT LABEL 671 HAS BEEN USED MORE THAN ONCE. ONLY THE LAST 
             DEFINITION IS CONSIDERED.
  *ELEMENT, TYPE=C3D8, ELSET=Elset672

 ***WARNING: ELEMENT LABEL 672 HAS BEEN USED MORE THAN ONCE. ONLY THE LAST 
             DEFINITION IS CONSIDERED.
  *ELEMENT, TYPE=C3D8, ELSET=Elset673

 ***WARNING: ELEMENT LABEL 673 HAS BEEN USED MORE THAN ONCE. ONLY THE LAST 
             DEFINITION IS CONSIDERED.
  *ELEMENT, TYPE=C3D8, ELSET=Elset685

 ***WARNING: ELEMENT LABEL 685 HAS BEEN USED MORE THAN ONCE. ONLY THE LAST 
             DEFINITION IS CONSIDERED.
  *ELEMENT, TYPE=C3D8, ELSET=Elset686

 ***WARNING: ELEMENT LABEL 686 HAS BEEN USED MORE THAN ONCE. ONLY THE LAST 
             DEFINITION IS CONSIDERED.
  *ELEMENT, TYPE=C3D8, ELSET=Elset687

 ***WARNING: ELEMENT LABEL 687 HAS BEEN USED MORE THAN ONCE. ONLY THE LAST 
             DEFINITION IS CONSIDERED.
  *ELEMENT, TYPE=C3D8, ELSET=Elset688

 ***WARNING: ELEMENT LABEL 688 HAS BEEN USED MORE THAN ONCE. ONLY THE LAST 
             DEFINITION IS CONSIDERED.
  *ELEMENT, TYPE=C3D8, ELSET=Elset689

 ***WARNING: ELEMENT LABEL 689 HAS BEEN USED MORE THAN ONCE. ONLY THE LAST 
             DEFINITION IS CONSIDERED.
  *ELEMENT, TYPE=C3D8, ELSET=Elset690

 ***WARNING: ELEMENT LABEL 690 HAS BEEN USED MORE THAN ONCE. ONLY THE LAST 
             DEFINITION IS CONSIDERED.
  *ELEMENT, TYPE=C3D8, ELSET=Elset691

 ***WARNING: ELEMENT LABEL 691 HAS BEEN USED MORE THAN ONCE. ONLY THE LAST 
             DEFINITION IS CONSIDERED.
  *ELEMENT, TYPE=C3D8, ELSET=Elset692

 ***WARNING: ELEMENT LABEL 692 HAS BEEN USED MORE THAN ONCE. ONLY THE LAST 
             DEFINITION IS CONSIDERED.
  *ELEMENT, TYPE=C3D8, ELSET=Elset693

 ***WARNING: ELEMENT LABEL 693 HAS BEEN USED MORE THAN ONCE. ONLY THE LAST 
             DEFINITION IS CONSIDERED.
  *ELEMENT, TYPE=C3D8, ELSET=Elset694

 ***WARNING: ELEMENT LABEL 694 HAS BEEN USED MORE THAN ONCE. ONLY THE LAST 
             DEFINITION IS CONSIDERED.
  *ELEMENT, TYPE=C3D8, ELSET=Elset695

 ***WARNING: ELEMENT LABEL 695 HAS BEEN USED MORE THAN ONCE. ONLY THE LAST 
             DEFINITION IS CONSIDERED.
  *ELEMENT, TYPE=C3D8, ELSET=Elset696

 ***WARNING: ELEMENT LABEL 696 HAS BEEN USED MORE THAN ONCE. ONLY THE LAST 
             DEFINITION IS CONSIDERED.
  *ELEMENT, TYPE=C3D8, ELSET=Elset697

 ***WARNING: ELEMENT LABEL 697 HAS BEEN USED MORE THAN ONCE. ONLY THE LAST 
             DEFINITION IS CONSIDERED.
  *ELEMENT, TYPE=C3D8, ELSET=Elset698

 ***WARNING: ELEMENT LABEL 698 HAS BEEN USED MORE THAN ONCE. ONLY THE LAST 
             DEFINITION IS CONSIDERED.
  *ELEMENT, TYPE=C3D8, ELSET=Elset699

 ***WARNING: ELEMENT LABEL 699 HAS BEEN USED MORE THAN ONCE. ONLY THE LAST 
             DEFINITION IS CONSIDERED.
  *ELEMENT, TYPE=C3D8, ELSET=Elset700

 ***WARNING: ELEMENT LABEL 700 HAS BEEN USED MORE THAN ONCE. ONLY THE LAST 
             DEFINITION IS CONSIDERED.
  *ELEMENT, TYPE=C3D8, ELSET=Elset701

 ***WARNING: ELEMENT LABEL 701 HAS BEEN USED MORE THAN ONCE. ONLY THE LAST 
             DEFINITION IS CONSIDERED.
  *ELEMENT, TYPE=C3D8, ELSET=Elset702

 ***WARNING: ELEMENT LABEL 702 HAS BEEN USED MORE THAN ONCE. ONLY THE LAST 
             DEFINITION IS CONSIDERED.
  *ELEMENT, TYPE=C3D8, ELSET=Elset703

 ***WARNING: ELEMENT LABEL 703 HAS BEEN USED MORE THAN ONCE. ONLY THE LAST 
             DEFINITION IS CONSIDERED.
  *ELEMENT, TYPE=C3D8, ELSET=Elset704

 ***WARNING: ELEMENT LABEL 704 HAS BEEN USED MORE THAN ONCE. ONLY THE LAST 
             DEFINITION IS CONSIDERED.
  *ELEMENT, TYPE=C3D8, ELSET=Elset705

 ***WARNING: ELEMENT LABEL 705 HAS BEEN USED MORE THAN ONCE. ONLY THE LAST 
             DEFINITION IS CONSIDERED.
  *ELEMENT, TYPE=C3D8, ELSET=Elset706

 ***WARNING: ELEMENT LABEL 706 HAS BEEN USED MORE THAN ONCE. ONLY THE LAST 
             DEFINITION IS CONSIDERED.
  *ELEMENT, TYPE=C3D8, ELSET=Elset707

 ***WARNING: ELEMENT LABEL 707 HAS BEEN USED MORE THAN ONCE. ONLY THE LAST 
             DEFINITION IS CONSIDERED.
  *ELEMENT, TYPE=C3D8, ELSET=Elset719

 ***WARNING: ELEMENT LABEL 719 HAS BEEN USED MORE THAN ONCE. ONLY THE LAST 
             DEFINITION IS CONSIDERED.
  *ELEMENT, TYPE=C3D8, ELSET=Elset720

 ***WARNING: ELEMENT LABEL 720 HAS BEEN USED MORE THAN ONCE. ONLY THE LAST 
             DEFINITION IS CONSIDERED.
  *ELEMENT, TYPE=C3D8, ELSET=Elset721

 ***WARNING: ELEMENT LABEL 721 HAS BEEN USED MORE THAN ONCE. ONLY THE LAST 
             DEFINITION IS CONSIDERED.
  *ELEMENT, TYPE=C3D8, ELSET=Elset722

 ***WARNING: ELEMENT LABEL 722 HAS BEEN USED MORE THAN ONCE. ONLY THE LAST 
             DEFINITION IS CONSIDERED.
  *ELEMENT, TYPE=C3D8, ELSET=Elset723

 ***WARNING: ELEMENT LABEL 723 HAS BEEN USED MORE THAN ONCE. ONLY THE LAST 
             DEFINITION IS CONSIDERED.
  *ELEMENT, TYPE=C3D8, ELSET=Elset724

 ***WARNING: ELEMENT LABEL 724 HAS BEEN USED MORE THAN ONCE. ONLY THE LAST 
             DEFINITION IS CONSIDERED.
  *ELEMENT, TYPE=C3D8, ELSET=Elset725

 ***WARNING: ELEMENT LABEL 725 HAS BEEN USED MORE THAN ONCE. ONLY THE LAST 
             DEFINITION IS CONSIDERED.
  *ELEMENT, TYPE=C3D8, ELSET=Elset726

 ***WARNING: ELEMENT LABEL 726 HAS BEEN USED MORE THAN ONCE. ONLY THE LAST 
             DEFINITION IS CONSIDERED.
  *ELEMENT, TYPE=C3D8, ELSET=Elset727

 ***WARNING: ELEMENT LABEL 727 HAS BEEN USED MORE THAN ONCE. ONLY THE LAST 
             DEFINITION IS CONSIDERED.
  *ELEMENT, TYPE=C3D8, ELSET=Elset728

 ***WARNING: ELEMENT LABEL 728 HAS BEEN USED MORE THAN ONCE. ONLY THE LAST 
             DEFINITION IS CONSIDERED.
  *ELEMENT, TYPE=C3D8, ELSET=Elset729

 ***WARNING: ELEMENT LABEL 729 HAS BEEN USED MORE THAN ONCE. ONLY THE LAST 
             DEFINITION IS CONSIDERED.
  *ELEMENT, TYPE=C3D8, ELSET=Elset730

 ***WARNING: ELEMENT LABEL 730 HAS BEEN USED MORE THAN ONCE. ONLY THE LAST 
             DEFINITION IS CONSIDERED.
  *ELEMENT, TYPE=C3D8, ELSET=Elset731

 ***WARNING: ELEMENT LABEL 731 HAS BEEN USED MORE THAN ONCE. ONLY THE LAST 
             DEFINITION IS CONSIDERED.
  *ELEMENT, TYPE=C3D8, ELSET=Elset732

 ***WARNING: ELEMENT LABEL 732 HAS BEEN USED MORE THAN ONCE. ONLY THE LAST 
             DEFINITION IS CONSIDERED.
  *ELEMENT, TYPE=C3D8, ELSET=Elset733

 ***WARNING: ELEMENT LABEL 733 HAS BEEN USED MORE THAN ONCE. ONLY THE LAST 
             DEFINITION IS CONSIDERED.
  *ELEMENT, TYPE=C3D8, ELSET=Elset734

 ***WARNING: ELEMENT LABEL 734 HAS BEEN USED MORE THAN ONCE. ONLY THE LAST 
             DEFINITION IS CONSIDERED.
  *ELEMENT, TYPE=C3D8, ELSET=Elset735

 ***WARNING: ELEMENT LABEL 735 HAS BEEN USED MORE THAN ONCE. ONLY THE LAST 
             DEFINITION IS CONSIDERED.
  *ELEMENT, TYPE=C3D8, ELSET=Elset736

 ***WARNING: ELEMENT LABEL 736 HAS BEEN USED MORE THAN ONCE. ONLY THE LAST 
             DEFINITION IS CONSIDERED.
  *ELEMENT, TYPE=C3D8, ELSET=Elset737

 ***WARNING: ELEMENT LABEL 737 HAS BEEN USED MORE THAN ONCE. ONLY THE LAST 
             DEFINITION IS CONSIDERED.
  *ELEMENT, TYPE=C3D8, ELSET=Elset738

 ***WARNING: ELEMENT LABEL 738 HAS BEEN USED MORE THAN ONCE. ONLY THE LAST 
             DEFINITION IS CONSIDERED.
  *ELEMENT, TYPE=C3D8, ELSET=Elset739

 ***WARNING: ELEMENT LABEL 739 HAS BEEN USED MORE THAN ONCE. ONLY THE LAST 
             DEFINITION IS CONSIDERED.
  *ELEMENT, TYPE=C3D8, ELSET=Elset740

 ***WARNING: ELEMENT LABEL 740 HAS BEEN USED MORE THAN ONCE. ONLY THE LAST 
             DEFINITION IS CONSIDERED.
  *ELEMENT, TYPE=C3D8, ELSET=Elset741

 ***WARNING: ELEMENT LABEL 741 HAS BEEN USED MORE THAN ONCE. ONLY THE LAST 
             DEFINITION IS CONSIDERED.
  *ELEMENT, TYPE=C3D8, ELSET=Elset753

 ***WARNING: ELEMENT LABEL 753 HAS BEEN USED MORE THAN ONCE. ONLY THE LAST 
             DEFINITION IS CONSIDERED.
  *ELEMENT, TYPE=C3D8, ELSET=Elset754

 ***WARNING: ELEMENT LABEL 754 HAS BEEN USED MORE THAN ONCE. ONLY THE LAST 
             DEFINITION IS CONSIDERED.
  *ELEMENT, TYPE=C3D8, ELSET=Elset755

 ***WARNING: ELEMENT LABEL 755 HAS BEEN USED MORE THAN ONCE. ONLY THE LAST 
             DEFINITION IS CONSIDERED.
  *ELEMENT, TYPE=C3D8, ELSET=Elset756

 ***WARNING: ELEMENT LABEL 756 HAS BEEN USED MORE THAN ONCE. ONLY THE LAST 
             DEFINITION IS CONSIDERED.
  *ELEMENT, TYPE=C3D8, ELSET=Elset757

 ***WARNING: ELEMENT LABEL 757 HAS BEEN USED MORE THAN ONCE. ONLY THE LAST 
             DEFINITION IS CONSIDERED.
  *ELEMENT, TYPE=C3D8, ELSET=Elset758

 ***WARNING: ELEMENT LABEL 758 HAS BEEN USED MORE THAN ONCE. ONLY THE LAST 
             DEFINITION IS CONSIDERED.
  *ELEMENT, TYPE=C3D8, ELSET=Elset759

 ***WARNING: ELEMENT LABEL 759 HAS BEEN USED MORE THAN ONCE. ONLY THE LAST 
             DEFINITION IS CONSIDERED.
  *ELEMENT, TYPE=C3D8, ELSET=Elset760

 ***WARNING: ELEMENT LABEL 760 HAS BEEN USED MORE THAN ONCE. ONLY THE LAST 
             DEFINITION IS CONSIDERED.
  *ELEMENT, TYPE=C3D8, ELSET=Elset761

 ***WARNING: ELEMENT LABEL 761 HAS BEEN USED MORE THAN ONCE. ONLY THE LAST 
             DEFINITION IS CONSIDERED.
  *ELEMENT, TYPE=C3D8, ELSET=Elset762

 ***WARNING: ELEMENT LABEL 762 HAS BEEN USED MORE THAN ONCE. ONLY THE LAST 
             DEFINITION IS CONSIDERED.
  *ELEMENT, TYPE=C3D8, ELSET=Elset763

 ***WARNING: ELEMENT LABEL 763 HAS BEEN USED MORE THAN ONCE. ONLY THE LAST 
             DEFINITION IS CONSIDERED.
  *ELEMENT, TYPE=C3D8, ELSET=Elset764

 ***WARNING: ELEMENT LABEL 764 HAS BEEN USED MORE THAN ONCE. ONLY THE LAST 
             DEFINITION IS CONSIDERED.
  *ELEMENT, TYPE=C3D8, ELSET=Elset765

 ***WARNING: ELEMENT LABEL 765 HAS BEEN USED MORE THAN ONCE. ONLY THE LAST 
             DEFINITION IS CONSIDERED.
  *ELEMENT, TYPE=C3D8, ELSET=Elset766

 ***WARNING: ELEMENT LABEL 766 HAS BEEN USED MORE THAN ONCE. ONLY THE LAST 
             DEFINITION IS CONSIDERED.
  *ELEMENT, TYPE=C3D8, ELSET=Elset767

 ***WARNING: ELEMENT LABEL 767 HAS BEEN USED MORE THAN ONCE. ONLY THE LAST 
             DEFINITION IS CONSIDERED.
  *ELEMENT, TYPE=C3D8, ELSET=Elset768

 ***WARNING: ELEMENT LABEL 768 HAS BEEN USED MORE THAN ONCE. ONLY THE LAST 
             DEFINITION IS CONSIDERED.
  *ELEMENT, TYPE=C3D8, ELSET=Elset769

 ***WARNING: ELEMENT LABEL 769 HAS BEEN USED MORE THAN ONCE. ONLY THE LAST 
             DEFINITION IS CONSIDERED.
  *ELEMENT, TYPE=C3D8, ELSET=Elset770

 ***WARNING: ELEMENT LABEL 770 HAS BEEN USED MORE THAN ONCE. ONLY THE LAST 
             DEFINITION IS CONSIDERED.
  *ELEMENT, TYPE=C3D8, ELSET=Elset771

 ***WARNING: ELEMENT LABEL 771 HAS BEEN USED MORE THAN ONCE. ONLY THE LAST 
             DEFINITION IS CONSIDERED.
  *ELEMENT, TYPE=C3D8, ELSET=Elset772

 ***WARNING: ELEMENT LABEL 772 HAS BEEN USED MORE THAN ONCE. ONLY THE LAST 
             DEFINITION IS CONSIDERED.
  *ELEMENT, TYPE=C3D8, ELSET=Elset773

 ***WARNING: ELEMENT LABEL 773 HAS BEEN USED MORE THAN ONCE. ONLY THE LAST 
             DEFINITION IS CONSIDERED.
  *ELEMENT, TYPE=C3D8, ELSET=Elset774

 ***WARNING: ELEMENT LABEL 774 HAS BEEN USED MORE THAN ONCE. ONLY THE LAST 
             DEFINITION IS CONSIDERED.
  *ELEMENT, TYPE=C3D8, ELSET=Elset775

 ***WARNING: ELEMENT LABEL 775 HAS BEEN USED MORE THAN ONCE. ONLY THE LAST 
             DEFINITION IS CONSIDERED.
  *ELEMENT, TYPE=C3D8, ELSET=Elset788

 ***WARNING: ELEMENT LABEL 788 HAS BEEN USED MORE THAN ONCE. ONLY THE LAST 
             DEFINITION IS CONSIDERED.
  *ELEMENT, TYPE=C3D8, ELSET=Elset789

 ***WARNING: ELEMENT LABEL 789 HAS BEEN USED MORE THAN ONCE. ONLY THE LAST 
             DEFINITION IS CONSIDERED.
  *ELEMENT, TYPE=C3D8, ELSET=Elset790

 ***WARNING: ELEMENT LABEL 790 HAS BEEN USED MORE THAN ONCE. ONLY THE LAST 
             DEFINITION IS CONSIDERED.
  *ELEMENT, TYPE=C3D8, ELSET=Elset791

 ***WARNING: ELEMENT LABEL 791 HAS BEEN USED MORE THAN ONCE. ONLY THE LAST 
             DEFINITION IS CONSIDERED.
  *ELEMENT, TYPE=C3D8, ELSET=Elset792

 ***WARNING: ELEMENT LABEL 792 HAS BEEN USED MORE THAN ONCE. ONLY THE LAST 
             DEFINITION IS CONSIDERED.
  *ELEMENT, TYPE=C3D8, ELSET=Elset793

 ***WARNING: ELEMENT LABEL 793 HAS BEEN USED MORE THAN ONCE. ONLY THE LAST 
             DEFINITION IS CONSIDERED.
  *ELEMENT, TYPE=C3D8, ELSET=Elset794

 ***WARNING: ELEMENT LABEL 794 HAS BEEN USED MORE THAN ONCE. ONLY THE LAST 
             DEFINITION IS CONSIDERED.
  *ELEMENT, TYPE=C3D8, ELSET=Elset795

 ***WARNING: ELEMENT LABEL 795 HAS BEEN USED MORE THAN ONCE. ONLY THE LAST 
             DEFINITION IS CONSIDERED.
  *ELEMENT, TYPE=C3D8, ELSET=Elset796

 ***WARNING: ELEMENT LABEL 796 HAS BEEN USED MORE THAN ONCE. ONLY THE LAST 
             DEFINITION IS CONSIDERED.
  *ELEMENT, TYPE=C3D8, ELSET=Elset797

 ***WARNING: ELEMENT LABEL 797 HAS BEEN USED MORE THAN ONCE. ONLY THE LAST 
             DEFINITION IS CONSIDERED.
  *ELEMENT, TYPE=C3D8, ELSET=Elset798

 ***WARNING: ELEMENT LABEL 798 HAS BEEN USED MORE THAN ONCE. ONLY THE LAST 
             DEFINITION IS CONSIDERED.
  *ELEMENT, TYPE=C3D8, ELSET=Elset799

 ***WARNING: ELEMENT LABEL 799 HAS BEEN USED MORE THAN ONCE. ONLY THE LAST 
             DEFINITION IS CONSIDERED.
  *ELEMENT, TYPE=C3D8, ELSET=Elset800

 ***WARNING: ELEMENT LABEL 800 HAS BEEN USED MORE THAN ONCE. ONLY THE LAST 
             DEFINITION IS CONSIDERED.
  *ELEMENT, TYPE=C3D8, ELSET=Elset801

 ***WARNING: ELEMENT LABEL 801 HAS BEEN USED MORE THAN ONCE. ONLY THE LAST 
             DEFINITION IS CONSIDERED.
  *ELEMENT, TYPE=C3D8, ELSET=Elset802

 ***WARNING: ELEMENT LABEL 802 HAS BEEN USED MORE THAN ONCE. ONLY THE LAST 
             DEFINITION IS CONSIDERED.
  *ELEMENT, TYPE=C3D8, ELSET=Elset803

 ***WARNING: ELEMENT LABEL 803 HAS BEEN USED MORE THAN ONCE. ONLY THE LAST 
             DEFINITION IS CONSIDERED.
  *ELEMENT, TYPE=C3D8, ELSET=Elset804

 ***WARNING: ELEMENT LABEL 804 HAS BEEN USED MORE THAN ONCE. ONLY THE LAST 
             DEFINITION IS CONSIDERED.
  *ELEMENT, TYPE=C3D8, ELSET=Elset805

 ***WARNING: ELEMENT LABEL 805 HAS BEEN USED MORE THAN ONCE. ONLY THE LAST 
             DEFINITION IS CONSIDERED.
  *ELEMENT, TYPE=C3D8, ELSET=Elset806

 ***WARNING: ELEMENT LABEL 806 HAS BEEN USED MORE THAN ONCE. ONLY THE LAST 
             DEFINITION IS CONSIDERED.
  *ELEMENT, TYPE=C3D8, ELSET=Elset807

 ***WARNING: ELEMENT LABEL 807 HAS BEEN USED MORE THAN ONCE. ONLY THE LAST 
             DEFINITION IS CONSIDERED.
  *ELEMENT, TYPE=C3D8, ELSET=Elset808

 ***WARNING: ELEMENT LABEL 808 HAS BEEN USED MORE THAN ONCE. ONLY THE LAST 
             DEFINITION IS CONSIDERED.
  *ELEMENT, TYPE=C3D8, ELSET=Elset809

 ***WARNING: ELEMENT LABEL 809 HAS BEEN USED MORE THAN ONCE. ONLY THE LAST 
             DEFINITION IS CONSIDERED.
  *ELEMENT, TYPE=C3D8, ELSET=Elset822

 ***WARNING: ELEMENT LABEL 822 HAS BEEN USED MORE THAN ONCE. ONLY THE LAST 
             DEFINITION IS CONSIDERED.
  *ELEMENT, TYPE=C3D8, ELSET=Elset823

 ***WARNING: ELEMENT LABEL 823 HAS BEEN USED MORE THAN ONCE. ONLY THE LAST 
             DEFINITION IS CONSIDERED.
  *ELEMENT, TYPE=C3D8, ELSET=Elset824

 ***WARNING: ELEMENT LABEL 824 HAS BEEN USED MORE THAN ONCE. ONLY THE LAST 
             DEFINITION IS CONSIDERED.
  *ELEMENT, TYPE=C3D8, ELSET=Elset825

 ***WARNING: ELEMENT LABEL 825 HAS BEEN USED MORE THAN ONCE. ONLY THE LAST 
             DEFINITION IS CONSIDERED.
  *ELEMENT, TYPE=C3D8, ELSET=Elset826

 ***WARNING: ELEMENT LABEL 826 HAS BEEN USED MORE THAN ONCE. ONLY THE LAST 
             DEFINITION IS CONSIDERED.
  *ELEMENT, TYPE=C3D8, ELSET=Elset827

 ***WARNING: ELEMENT LABEL 827 HAS BEEN USED MORE THAN ONCE. ONLY THE LAST 
             DEFINITION IS CONSIDERED.
  *ELEMENT, TYPE=C3D8, ELSET=Elset828

 ***WARNING: ELEMENT LABEL 828 HAS BEEN USED MORE THAN ONCE. ONLY THE LAST 
             DEFINITION IS CONSIDERED.
  *ELEMENT, TYPE=C3D8, ELSET=Elset829

 ***WARNING: ELEMENT LABEL 829 HAS BEEN USED MORE THAN ONCE. ONLY THE LAST 
             DEFINITION IS CONSIDERED.
  *ELEMENT, TYPE=C3D8, ELSET=Elset830

 ***WARNING: ELEMENT LABEL 830 HAS BEEN USED MORE THAN ONCE. ONLY THE LAST 
             DEFINITION IS CONSIDERED.
  *ELEMENT, TYPE=C3D8, ELSET=Elset831

 ***WARNING: ELEMENT LABEL 831 HAS BEEN USED MORE THAN ONCE. ONLY THE LAST 
             DEFINITION IS CONSIDERED.
  *ELEMENT, TYPE=C3D8, ELSET=Elset832

 ***WARNING: ELEMENT LABEL 832 HAS BEEN USED MORE THAN ONCE. ONLY THE LAST 
             DEFINITION IS CONSIDERED.
  *ELEMENT, TYPE=C3D8, ELSET=Elset833

 ***WARNING: ELEMENT LABEL 833 HAS BEEN USED MORE THAN ONCE. ONLY THE LAST 
             DEFINITION IS CONSIDERED.
  *ELEMENT, TYPE=C3D8, ELSET=Elset834

 ***WARNING: ELEMENT LABEL 834 HAS BEEN USED MORE THAN ONCE. ONLY THE LAST 
             DEFINITION IS CONSIDERED.
  *ELEMENT, TYPE=C3D8, ELSET=Elset835

 ***WARNING: ELEMENT LABEL 835 HAS BEEN USED MORE THAN ONCE. ONLY THE LAST 
             DEFINITION IS CONSIDERED.
  *ELEMENT, TYPE=C3D8, ELSET=Elset836

 ***WARNING: ELEMENT LABEL 836 HAS BEEN USED MORE THAN ONCE. ONLY THE LAST 
             DEFINITION IS CONSIDERED.
  *ELEMENT, TYPE=C3D8, ELSET=Elset837

 ***WARNING: ELEMENT LABEL 837 HAS BEEN USED MORE THAN ONCE. ONLY THE LAST 
             DEFINITION IS CONSIDERED.
  *ELEMENT, TYPE=C3D8, ELSET=Elset838

 ***WARNING: ELEMENT LABEL 838 HAS BEEN USED MORE THAN ONCE. ONLY THE LAST 
             DEFINITION IS CONSIDERED.
  *ELEMENT, TYPE=C3D8, ELSET=Elset839

 ***WARNING: ELEMENT LABEL 839 HAS BEEN USED MORE THAN ONCE. ONLY THE LAST 
             DEFINITION IS CONSIDERED.
  *ELEMENT, TYPE=C3D8, ELSET=Elset840

 ***WARNING: ELEMENT LABEL 840 HAS BEEN USED MORE THAN ONCE. ONLY THE LAST 
             DEFINITION IS CONSIDERED.
  *ELEMENT, TYPE=C3D8, ELSET=Elset841

 ***WARNING: ELEMENT LABEL 841 HAS BEEN USED MORE THAN ONCE. ONLY THE LAST 
             DEFINITION IS CONSIDERED.
  *ELEMENT, TYPE=C3D8, ELSET=Elset842

 ***WARNING: ELEMENT LABEL 842 HAS BEEN USED MORE THAN ONCE. ONLY THE LAST 
             DEFINITION IS CONSIDERED.
  *ELEMENT, TYPE=C3D8, ELSET=Elset843

 ***WARNING: ELEMENT LABEL 843 HAS BEEN USED MORE THAN ONCE. ONLY THE LAST 
             DEFINITION IS CONSIDERED.
  *ELEMENT, TYPE=C3D8, ELSET=Elset857

 ***WARNING: ELEMENT LABEL 857 HAS BEEN USED MORE THAN ONCE. ONLY THE LAST 
             DEFINITION IS CONSIDERED.
  *ELEMENT, TYPE=C3D8, ELSET=Elset858

 ***WARNING: ELEMENT LABEL 858 HAS BEEN USED MORE THAN ONCE. ONLY THE LAST 
             DEFINITION IS CONSIDERED.
  *ELEMENT, TYPE=C3D8, ELSET=Elset859

 ***WARNING: ELEMENT LABEL 859 HAS BEEN USED MORE THAN ONCE. ONLY THE LAST 
             DEFINITION IS CONSIDERED.
  *ELEMENT, TYPE=C3D8, ELSET=Elset860

 ***WARNING: ELEMENT LABEL 860 HAS BEEN USED MORE THAN ONCE. ONLY THE LAST 
             DEFINITION IS CONSIDERED.
  *ELEMENT, TYPE=C3D8, ELSET=Elset861

 ***WARNING: ELEMENT LABEL 861 HAS BEEN USED MORE THAN ONCE. ONLY THE LAST 
             DEFINITION IS CONSIDERED.
  *ELEMENT, TYPE=C3D8, ELSET=Elset862

 ***WARNING: ELEMENT LABEL 862 HAS BEEN USED MORE THAN ONCE. ONLY THE LAST 
             DEFINITION IS CONSIDERED.
  *ELEMENT, TYPE=C3D8, ELSET=Elset863

 ***WARNING: ELEMENT LABEL 863 HAS BEEN USED MORE THAN ONCE. ONLY THE LAST 
             DEFINITION IS CONSIDERED.
  *ELEMENT, TYPE=C3D8, ELSET=Elset864

 ***WARNING: ELEMENT LABEL 864 HAS BEEN USED MORE THAN ONCE. ONLY THE LAST 
             DEFINITION IS CONSIDERED.
  *ELEMENT, TYPE=C3D8, ELSET=Elset865

 ***WARNING: ELEMENT LABEL 865 HAS BEEN USED MORE THAN ONCE. ONLY THE LAST 
             DEFINITION IS CONSIDERED.
  *ELEMENT, TYPE=C3D8, ELSET=Elset866

 ***WARNING: ELEMENT LABEL 866 HAS BEEN USED MORE THAN ONCE. ONLY THE LAST 
             DEFINITION IS CONSIDERED.
  *ELEMENT, TYPE=C3D8, ELSET=Elset867

 ***WARNING: ELEMENT LABEL 867 HAS BEEN USED MORE THAN ONCE. ONLY THE LAST 
             DEFINITION IS CONSIDERED.
  *ELEMENT, TYPE=C3D8, ELSET=Elset868

 ***WARNING: ELEMENT LABEL 868 HAS BEEN USED MORE THAN ONCE. ONLY THE LAST 
             DEFINITION IS CONSIDERED.
  *ELEMENT, TYPE=C3D8, ELSET=Elset869

 ***WARNING: ELEMENT LABEL 869 HAS BEEN USED MORE THAN ONCE. ONLY THE LAST 
             DEFINITION IS CONSIDERED.
  *ELEMENT, TYPE=C3D8, ELSET=Elset870

 ***WARNING: ELEMENT LABEL 870 HAS BEEN USED MORE THAN ONCE. ONLY THE LAST 
             DEFINITION IS CONSIDERED.
  *ELEMENT, TYPE=C3D8, ELSET=Elset871

 ***WARNING: ELEMENT LABEL 871 HAS BEEN USED MORE THAN ONCE. ONLY THE LAST 
             DEFINITION IS CONSIDERED.
  *ELEMENT, TYPE=C3D8, ELSET=Elset872

 ***WARNING: ELEMENT LABEL 872 HAS BEEN USED MORE THAN ONCE. ONLY THE LAST 
             DEFINITION IS CONSIDERED.
  *ELEMENT, TYPE=C3D8, ELSET=Elset873

 ***WARNING: ELEMENT LABEL 873 HAS BEEN USED MORE THAN ONCE. ONLY THE LAST 
             DEFINITION IS CONSIDERED.
  *ELEMENT, TYPE=C3D8, ELSET=Elset874

 ***WARNING: ELEMENT LABEL 874 HAS BEEN USED MORE THAN ONCE. ONLY THE LAST 
             DEFINITION IS CONSIDERED.
  *ELEMENT, TYPE=C3D8, ELSET=Elset875

 ***WARNING: ELEMENT LABEL 875 HAS BEEN USED MORE THAN ONCE. ONLY THE LAST 
             DEFINITION IS CONSIDERED.
  *ELEMENT, TYPE=C3D8, ELSET=Elset876

 ***WARNING: ELEMENT LABEL 876 HAS BEEN USED MORE THAN ONCE. ONLY THE LAST 
             DEFINITION IS CONSIDERED.
  *ELEMENT, TYPE=C3D8, ELSET=Elset891

 ***WARNING: ELEMENT LABEL 891 HAS BEEN USED MORE THAN ONCE. ONLY THE LAST 
             DEFINITION IS CONSIDERED.
  *ELEMENT, TYPE=C3D8, ELSET=Elset892

 ***WARNING: ELEMENT LABEL 892 HAS BEEN USED MORE THAN ONCE. ONLY THE LAST 
             DEFINITION IS CONSIDERED.
  *ELEMENT, TYPE=C3D8, ELSET=Elset893

 ***WARNING: ELEMENT LABEL 893 HAS BEEN USED MORE THAN ONCE. ONLY THE LAST 
             DEFINITION IS CONSIDERED.
  *ELEMENT, TYPE=C3D8, ELSET=Elset894

 ***WARNING: ELEMENT LABEL 894 HAS BEEN USED MORE THAN ONCE. ONLY THE LAST 
             DEFINITION IS CONSIDERED.
  *ELEMENT, TYPE=C3D8, ELSET=Elset895

 ***WARNING: ELEMENT LABEL 895 HAS BEEN USED MORE THAN ONCE. ONLY THE LAST 
             DEFINITION IS CONSIDERED.
  *ELEMENT, TYPE=C3D8, ELSET=Elset896

 ***WARNING: ELEMENT LABEL 896 HAS BEEN USED MORE THAN ONCE. ONLY THE LAST 
             DEFINITION IS CONSIDERED.
  *ELEMENT, TYPE=C3D8, ELSET=Elset897

 ***WARNING: ELEMENT LABEL 897 HAS BEEN USED MORE THAN ONCE. ONLY THE LAST 
             DEFINITION IS CONSIDERED.
  *ELEMENT, TYPE=C3D8, ELSET=Elset898

 ***WARNING: ELEMENT LABEL 898 HAS BEEN USED MORE THAN ONCE. ONLY THE LAST 
             DEFINITION IS CONSIDERED.
  *ELEMENT, TYPE=C3D8, ELSET=Elset899

 ***WARNING: ELEMENT LABEL 899 HAS BEEN USED MORE THAN ONCE. ONLY THE LAST 
             DEFINITION IS CONSIDERED.
  *ELEMENT, TYPE=C3D8, ELSET=Elset900

 ***WARNING: ELEMENT LABEL 900 HAS BEEN USED MORE THAN ONCE. ONLY THE LAST 
             DEFINITION IS CONSIDERED.
  *ELEMENT, TYPE=C3D8, ELSET=Elset901

 ***WARNING: ELEMENT LABEL 901 HAS BEEN USED MORE THAN ONCE. ONLY THE LAST 
             DEFINITION IS CONSIDERED.
  *ELEMENT, TYPE=C3D8, ELSET=Elset902

 ***WARNING: ELEMENT LABEL 902 HAS BEEN USED MORE THAN ONCE. ONLY THE LAST 
             DEFINITION IS CONSIDERED.
  *ELEMENT, TYPE=C3D8, ELSET=Elset903

 ***WARNING: ELEMENT LABEL 903 HAS BEEN USED MORE THAN ONCE. ONLY THE LAST 
             DEFINITION IS CONSIDERED.
  *ELEMENT, TYPE=C3D8, ELSET=Elset904

 ***WARNING: ELEMENT LABEL 904 HAS BEEN USED MORE THAN ONCE. ONLY THE LAST 
             DEFINITION IS CONSIDERED.
  *ELEMENT, TYPE=C3D8, ELSET=Elset905

 ***WARNING: ELEMENT LABEL 905 HAS BEEN USED MORE THAN ONCE. ONLY THE LAST 
             DEFINITION IS CONSIDERED.
  *ELEMENT, TYPE=C3D8, ELSET=Elset906

 ***WARNING: ELEMENT LABEL 906 HAS BEEN USED MORE THAN ONCE. ONLY THE LAST 
             DEFINITION IS CONSIDERED.
  *ELEMENT, TYPE=C3D8, ELSET=Elset907

 ***WARNING: ELEMENT LABEL 907 HAS BEEN USED MORE THAN ONCE. ONLY THE LAST 
             DEFINITION IS CONSIDERED.
  *ELEMENT, TYPE=C3D8, ELSET=Elset908

 ***WARNING: ELEMENT LABEL 908 HAS BEEN USED MORE THAN ONCE. ONLY THE LAST 
             DEFINITION IS CONSIDERED.
  *ELEMENT, TYPE=C3D8, ELSET=Elset909

 ***WARNING: ELEMENT LABEL 909 HAS BEEN USED MORE THAN ONCE. ONLY THE LAST 
             DEFINITION IS CONSIDERED.
  *ELEMENT, TYPE=C3D8, ELSET=Elset910

 ***WARNING: ELEMENT LABEL 910 HAS BEEN USED MORE THAN ONCE. ONLY THE LAST 
             DEFINITION IS CONSIDERED.
  *ELEMENT, TYPE=C3D8, ELSET=Elset926

 ***WARNING: ELEMENT LABEL 926 HAS BEEN USED MORE THAN ONCE. ONLY THE LAST 
             DEFINITION IS CONSIDERED.
  *ELEMENT, TYPE=C3D8, ELSET=Elset927

 ***WARNING: ELEMENT LABEL 927 HAS BEEN USED MORE THAN ONCE. ONLY THE LAST 
             DEFINITION IS CONSIDERED.
  *ELEMENT, TYPE=C3D8, ELSET=Elset928

 ***WARNING: ELEMENT LABEL 928 HAS BEEN USED MORE THAN ONCE. ONLY THE LAST 
             DEFINITION IS CONSIDERED.
  *ELEMENT, TYPE=C3D8, ELSET=Elset929

 ***WARNING: ELEMENT LABEL 929 HAS BEEN USED MORE THAN ONCE. ONLY THE LAST 
             DEFINITION IS CONSIDERED.
  *ELEMENT, TYPE=C3D8, ELSET=Elset930

 ***WARNING: ELEMENT LABEL 930 HAS BEEN USED MORE THAN ONCE. ONLY THE LAST 
             DEFINITION IS CONSIDERED.
  *ELEMENT, TYPE=C3D8, ELSET=Elset931

 ***WARNING: ELEMENT LABEL 931 HAS BEEN USED MORE THAN ONCE. ONLY THE LAST 
             DEFINITION IS CONSIDERED.
  *ELEMENT, TYPE=C3D8, ELSET=Elset932

 ***WARNING: ELEMENT LABEL 932 HAS BEEN USED MORE THAN ONCE. ONLY THE LAST 
             DEFINITION IS CONSIDERED.
  *ELEMENT, TYPE=C3D8, ELSET=Elset933

 ***WARNING: ELEMENT LABEL 933 HAS BEEN USED MORE THAN ONCE. ONLY THE LAST 
             DEFINITION IS CONSIDERED.
  *ELEMENT, TYPE=C3D8, ELSET=Elset934

 ***WARNING: ELEMENT LABEL 934 HAS BEEN USED MORE THAN ONCE. ONLY THE LAST 
             DEFINITION IS CONSIDERED.
  *ELEMENT, TYPE=C3D8, ELSET=Elset935

 ***WARNING: ELEMENT LABEL 935 HAS BEEN USED MORE THAN ONCE. ONLY THE LAST 
             DEFINITION IS CONSIDERED.
  *ELEMENT, TYPE=C3D8, ELSET=Elset936

 ***WARNING: ELEMENT LABEL 936 HAS BEEN USED MORE THAN ONCE. ONLY THE LAST 
             DEFINITION IS CONSIDERED.
  *ELEMENT, TYPE=C3D8, ELSET=Elset937

 ***WARNING: ELEMENT LABEL 937 HAS BEEN USED MORE THAN ONCE. ONLY THE LAST 
             DEFINITION IS CONSIDERED.
  *ELEMENT, TYPE=C3D8, ELSET=Elset938

 ***WARNING: ELEMENT LABEL 938 HAS BEEN USED MORE THAN ONCE. ONLY THE LAST 
             DEFINITION IS CONSIDERED.
  *ELEMENT, TYPE=C3D8, ELSET=Elset939

 ***WARNING: ELEMENT LABEL 939 HAS BEEN USED MORE THAN ONCE. ONLY THE LAST 
             DEFINITION IS CONSIDERED.
  *ELEMENT, TYPE=C3D8, ELSET=Elset940

 ***WARNING: ELEMENT LABEL 940 HAS BEEN USED MORE THAN ONCE. ONLY THE LAST 
             DEFINITION IS CONSIDERED.
  *ELEMENT, TYPE=C3D8, ELSET=Elset941

 ***WARNING: ELEMENT LABEL 941 HAS BEEN USED MORE THAN ONCE. ONLY THE LAST 
             DEFINITION IS CONSIDERED.
  *ELEMENT, TYPE=C3D8, ELSET=Elset942

 ***WARNING: ELEMENT LABEL 942 HAS BEEN USED MORE THAN ONCE. ONLY THE LAST 
             DEFINITION IS CONSIDERED.
  *ELEMENT, TYPE=C3D8, ELSET=Elset943

 ***WARNING: ELEMENT LABEL 943 HAS BEEN USED MORE THAN ONCE. ONLY THE LAST 
             DEFINITION IS CONSIDERED.
  *ELEMENT, TYPE=C3D8, ELSET=Elset961

 ***WARNING: ELEMENT LABEL 961 HAS BEEN USED MORE THAN ONCE. ONLY THE LAST 
             DEFINITION IS CONSIDERED.
  *ELEMENT, TYPE=C3D8, ELSET=Elset962

 ***WARNING: ELEMENT LABEL 962 HAS BEEN USED MORE THAN ONCE. ONLY THE LAST 
             DEFINITION IS CONSIDERED.
  *ELEMENT, TYPE=C3D8, ELSET=Elset963

 ***WARNING: ELEMENT LABEL 963 HAS BEEN USED MORE THAN ONCE. ONLY THE LAST 
             DEFINITION IS CONSIDERED.
  *ELEMENT, TYPE=C3D8, ELSET=Elset964

 ***WARNING: ELEMENT LABEL 964 HAS BEEN USED MORE THAN ONCE. ONLY THE LAST 
             DEFINITION IS CONSIDERED.
  *ELEMENT, TYPE=C3D8, ELSET=Elset965

 ***WARNING: ELEMENT LABEL 965 HAS BEEN USED MORE THAN ONCE. ONLY THE LAST 
             DEFINITION IS CONSIDERED.
  *ELEMENT, TYPE=C3D8, ELSET=Elset966

 ***WARNING: ELEMENT LABEL 966 HAS BEEN USED MORE THAN ONCE. ONLY THE LAST 
             DEFINITION IS CONSIDERED.
  *ELEMENT, TYPE=C3D8, ELSET=Elset967

 ***WARNING: ELEMENT LABEL 967 HAS BEEN USED MORE THAN ONCE. ONLY THE LAST 
             DEFINITION IS CONSIDERED.
  *ELEMENT, TYPE=C3D8, ELSET=Elset968

 ***WARNING: ELEMENT LABEL 968 HAS BEEN USED MORE THAN ONCE. ONLY THE LAST 
             DEFINITION IS CONSIDERED.
  *ELEMENT, TYPE=C3D8, ELSET=Elset969

 ***WARNING: ELEMENT LABEL 969 HAS BEEN USED MORE THAN ONCE. ONLY THE LAST 
             DEFINITION IS CONSIDERED.
  *ELEMENT, TYPE=C3D8, ELSET=Elset970

 ***WARNING: ELEMENT LABEL 970 HAS BEEN USED MORE THAN ONCE. ONLY THE LAST 
             DEFINITION IS CONSIDERED.
  *ELEMENT, TYPE=C3D8, ELSET=Elset971

 ***WARNING: ELEMENT LABEL 971 HAS BEEN USED MORE THAN ONCE. ONLY THE LAST 
             DEFINITION IS CONSIDERED.
  *ELEMENT, TYPE=C3D8, ELSET=Elset972

 ***WARNING: ELEMENT LABEL 972 HAS BEEN USED MORE THAN ONCE. ONLY THE LAST 
             DEFINITION IS CONSIDERED.
  *ELEMENT, TYPE=C3D8, ELSET=Elset973

 ***WARNING: ELEMENT LABEL 973 HAS BEEN USED MORE THAN ONCE. ONLY THE LAST 
             DEFINITION IS CONSIDERED.
  *ELEMENT, TYPE=C3D8, ELSET=Elset974

 ***WARNING: ELEMENT LABEL 974 HAS BEEN USED MORE THAN ONCE. ONLY THE LAST 
             DEFINITION IS CONSIDERED.
  *ELEMENT, TYPE=C3D8, ELSET=Elset975

 ***WARNING: ELEMENT LABEL 975 HAS BEEN USED MORE THAN ONCE. ONLY THE LAST 
             DEFINITION IS CONSIDERED.
  *ELEMENT, TYPE=C3D8, ELSET=Elset976

 ***WARNING: ELEMENT LABEL 976 HAS BEEN USED MORE THAN ONCE. ONLY THE LAST 
             DEFINITION IS CONSIDERED.
  *ELEMENT, TYPE=C3D8, ELSET=Elset977

 ***WARNING: ELEMENT LABEL 977 HAS BEEN USED MORE THAN ONCE. ONLY THE LAST 
             DEFINITION IS CONSIDERED.
  *ELEMENT, TYPE=C3D8, ELSET=Elset995

 ***WARNING: ELEMENT LABEL 995 HAS BEEN USED MORE THAN ONCE. ONLY THE LAST 
             DEFINITION IS CONSIDERED.
  *ELEMENT, TYPE=C3D8, ELSET=Elset996

 ***WARNING: ELEMENT LABEL 996 HAS BEEN USED MORE THAN ONCE. ONLY THE LAST 
             DEFINITION IS CONSIDERED.
  *ELEMENT, TYPE=C3D8, ELSET=Elset997

 ***WARNING: ELEMENT LABEL 997 HAS BEEN USED MORE THAN ONCE. ONLY THE LAST 
             DEFINITION IS CONSIDERED.
  *ELEMENT, TYPE=C3D8, ELSET=Elset998

 ***WARNING: ELEMENT LABEL 998 HAS BEEN USED MORE THAN ONCE. ONLY THE LAST 
             DEFINITION IS CONSIDERED.
  *ELEMENT, TYPE=C3D8, ELSET=Elset999

 ***WARNING: ELEMENT LABEL 999 HAS BEEN USED MORE THAN ONCE. ONLY THE LAST 
             DEFINITION IS CONSIDERED.
  *ELEMENT, TYPE=C3D8, ELSET=Elset1000

 ***WARNING: ELEMENT LABEL 1000 HAS BEEN USED MORE THAN ONCE. ONLY THE LAST 
             DEFINITION IS CONSIDERED.
  *ELEMENT, TYPE=C3D8, ELSET=Elset1001

 ***WARNING: ELEMENT LABEL 1001 HAS BEEN USED MORE THAN ONCE. ONLY THE LAST 
             DEFINITION IS CONSIDERED.
  *NSET, NSET=TOPNODES
  *NSET, NSET=BOTNODES
  *NODE
  *NSET, NSET=REF_NODE
  *INCLUDE, input=/home/ms20s284/FRACTIB/04_Results/03_hFE/455_L_97_F/Steps/Step01.inp

  *** INPUT DATA IS READ FROM FILE /home/ms20s284/FRACTIB/04_Results/03_hFE/455_L_97_F/Steps/Step01.inp                                                                                                                                                                                           

  *INCLUDE, input=/home/ms20s284/FRACTIB/04_Results/03_hFE/455_L_97_F/Steps/Step02.inp

  *** INPUT DATA IS READ FROM FILE /home/ms20s284/FRACTIB/04_Results/03_hFE/455_L_97_F/Steps/Step02.inp                                                                                                                                                                                           

  *INCLUDE, input=/home/ms20s284/FRACTIB/04_Results/03_hFE/455_L_97_F/Steps/Step03.inp

  *** INPUT DATA IS READ FROM FILE /home/ms20s284/FRACTIB/04_Results/03_hFE/455_L_97_F/Steps/Step03.inp                                                                                                                                                                                           

  *INCLUDE, input=/home/ms20s284/FRACTIB/04_Results/03_hFE/455_L_97_F/Steps/Step04.inp

  *** INPUT DATA IS READ FROM FILE /home/ms20s284/FRACTIB/04_Results/03_hFE/455_L_97_F/Steps/Step04.inp                                                                                                                                                                                           

  *INCLUDE, input=/home/ms20s284/FRACTIB/04_Results/03_hFE/455_L_97_F/Steps/Step05.inp

  *** INPUT DATA IS READ FROM FILE /home/ms20s284/FRACTIB/04_Results/03_hFE/455_L_97_F/Steps/Step05.inp                                                                                                                                                                                           

  *INCLUDE, input=/home/ms20s284/FRACTIB/04_Results/03_hFE/455_L_97_F/Steps/Step06.inp

  *** INPUT DATA IS READ FROM FILE /home/ms20s284/FRACTIB/04_Results/03_hFE/455_L_97_F/Steps/Step06.inp                                                                                                                                                                                           

  *INCLUDE, input=/home/ms20s284/FRACTIB/04_Results/03_hFE/455_L_97_F/Steps/Step07.inp

  *** INPUT DATA IS READ FROM FILE /home/ms20s284/FRACTIB/04_Results/03_hFE/455_L_97_F/Steps/Step07.inp                                                                                                                                                                                           

  *INCLUDE, input=/home/ms20s284/FRACTIB/04_Results/03_hFE/455_L_97_F/Steps/Step08.inp

  *** INPUT DATA IS READ FROM FILE /home/ms20s284/FRACTIB/04_Results/03_hFE/455_L_97_F/Steps/Step08.inp                                                                                                                                                                                           

  *INCLUDE, input=/home/ms20s284/FRACTIB/04_Results/03_hFE/455_L_97_F/Steps/Step09.inp

  *** INPUT DATA IS READ FROM FILE /home/ms20s284/FRACTIB/04_Results/03_hFE/455_L_97_F/Steps/Step09.inp                                                                                                                                                                                           

  *INCLUDE, input=/home/ms20s284/FRACTIB/04_Results/03_hFE/455_L_97_F/Steps/Step10.inp

  *** INPUT DATA IS READ FROM FILE /home/ms20s284/FRACTIB/04_Results/03_hFE/455_L_97_F/Steps/Step10.inp                                                                                                                                                                                           

  *INCLUDE, input=/home/ms20s284/FRACTIB/04_Results/03_hFE/455_L_97_F/Steps/Step11.inp

  *** INPUT DATA IS READ FROM FILE /home/ms20s284/FRACTIB/04_Results/03_hFE/455_L_97_F/Steps/Step11.inp                                                                                                                                                                                           

  *INCLUDE, input=/home/ms20s284/FRACTIB/04_Results/03_hFE/455_L_97_F/Steps/Step12.inp

  *** INPUT DATA IS READ FROM FILE /home/ms20s284/FRACTIB/04_Results/03_hFE/455_L_97_F/Steps/Step12.inp                                                                                                                                                                                           

  *INCLUDE, input=/home/ms20s284/FRACTIB/04_Results/03_hFE/455_L_97_F/Steps/Step13.inp

  *** INPUT DATA IS READ FROM FILE /home/ms20s284/FRACTIB/04_Results/03_hFE/455_L_97_F/Steps/Step13.inp                                                                                                                                                                                           

  *INCLUDE, input=/home/ms20s284/FRACTIB/04_Results/03_hFE/455_L_97_F/Steps/Step14.inp

  *** INPUT DATA IS READ FROM FILE /home/ms20s284/FRACTIB/04_Results/03_hFE/455_L_97_F/Steps/Step14.inp                                                                                                                                                                                           

  *INCLUDE, input=/home/ms20s284/FRACTIB/04_Results/03_hFE/455_L_97_F/Steps/Step15.inp

  *** INPUT DATA IS READ FROM FILE /home/ms20s284/FRACTIB/04_Results/03_hFE/455_L_97_F/Steps/Step15.inp                                                                                                                                                                                           

  *INCLUDE, input=/home/ms20s284/FRACTIB/04_Results/03_hFE/455_L_97_F/Steps/Step16.inp

  *** INPUT DATA IS READ FROM FILE /home/ms20s284/FRACTIB/04_Results/03_hFE/455_L_97_F/Steps/Step16.inp                                                                                                                                                                                           

  *INCLUDE, input=/home/ms20s284/FRACTIB/04_Results/03_hFE/455_L_97_F/Steps/Step17.inp

  *** INPUT DATA IS READ FROM FILE /home/ms20s284/FRACTIB/04_Results/03_hFE/455_L_97_F/Steps/Step17.inp                                                                                                                                                                                           

  *INCLUDE, input=/home/ms20s284/FRACTIB/04_Results/03_hFE/455_L_97_F/Steps/Step18.inp

  *** INPUT DATA IS READ FROM FILE /home/ms20s284/FRACTIB/04_Results/03_hFE/455_L_97_F/Steps/Step18.inp                                                                                                                                                                                           

  *INCLUDE, input=/home/ms20s284/FRACTIB/04_Results/03_hFE/455_L_97_F/Steps/Step19.inp

  *** INPUT DATA IS READ FROM FILE /home/ms20s284/FRACTIB/04_Results/03_hFE/455_L_97_F/Steps/Step19.inp                                                                                                                                                                                           

  *INCLUDE, input=/home/ms20s284/FRACTIB/04_Results/03_hFE/455_L_97_F/Steps/Step20.inp

  *** INPUT DATA IS READ FROM FILE /home/ms20s284/FRACTIB/04_Results/03_hFE/455_L_97_F/Steps/Step20.inp                                                                                                                                                                                           

  *INCLUDE, input=/home/ms20s284/FRACTIB/04_Results/03_hFE/455_L_97_F/Steps/Step21.inp

  *** INPUT DATA IS READ FROM FILE /home/ms20s284/FRACTIB/04_Results/03_hFE/455_L_97_F/Steps/Step21.inp                                                                                                                                                                                           

  *INCLUDE, input=/home/ms20s284/FRACTIB/04_Results/03_hFE/455_L_97_F/Steps/Step22.inp

  *** INPUT DATA IS READ FROM FILE /home/ms20s284/FRACTIB/04_Results/03_hFE/455_L_97_F/Steps/Step22.inp                                                                                                                                                                                           

  *INCLUDE, input=/home/ms20s284/FRACTIB/04_Results/03_hFE/455_L_97_F/Steps/Step23.inp

  *** INPUT DATA IS READ FROM FILE /home/ms20s284/FRACTIB/04_Results/03_hFE/455_L_97_F/Steps/Step23.inp                                                                                                                                                                                           

  *INCLUDE, input=/home/ms20s284/FRACTIB/04_Results/03_hFE/455_L_97_F/Steps/Step24.inp

  *** INPUT DATA IS READ FROM FILE /home/ms20s284/FRACTIB/04_Results/03_hFE/455_L_97_F/Steps/Step24.inp                                                                                                                                                                                           

  *INCLUDE, input=/home/ms20s284/FRACTIB/04_Results/03_hFE/455_L_97_F/Steps/Step25.inp

  *** INPUT DATA IS READ FROM FILE /home/ms20s284/FRACTIB/04_Results/03_hFE/455_L_97_F/Steps/Step25.inp                                                                                                                                                                                           

  *INCLUDE, input=/home/ms20s284/FRACTIB/04_Results/03_hFE/455_L_97_F/Steps/Step26.inp

  *** INPUT DATA IS READ FROM FILE /home/ms20s284/FRACTIB/04_Results/03_hFE/455_L_97_F/Steps/Step26.inp                                                                                                                                                                                           

  *INCLUDE, input=/home/ms20s284/FRACTIB/04_Results/03_hFE/455_L_97_F/Steps/Step27.inp

  *** INPUT DATA IS READ FROM FILE /home/ms20s284/FRACTIB/04_Results/03_hFE/455_L_97_F/Steps/Step27.inp                                                                                                                                                                                           

  *INCLUDE, input=/home/ms20s284/FRACTIB/04_Results/03_hFE/455_L_97_F/Steps/Step28.inp

  *** INPUT DATA IS READ FROM FILE /home/ms20s284/FRACTIB/04_Results/03_hFE/455_L_97_F/Steps/Step28.inp                                                                                                                                                                                           

  *INCLUDE, input=/home/ms20s284/FRACTIB/04_Results/03_hFE/455_L_97_F/Steps/Step29.inp

  *** INPUT DATA IS READ FROM FILE /home/ms20s284/FRACTIB/04_Results/03_hFE/455_L_97_F/Steps/Step29.inp                                                                                                                                                                                           

  *INCLUDE, input=/home/ms20s284/FRACTIB/04_Results/03_hFE/455_L_97_F/Steps/Step30.inp

  *** INPUT DATA IS READ FROM FILE /home/ms20s284/FRACTIB/04_Results/03_hFE/455_L_97_F/Steps/Step30.inp                                                                                                                                                                                           

  *INCLUDE, input=/home/ms20s284/FRACTIB/04_Results/03_hFE/455_L_97_F/Steps/Step31.inp

  *** INPUT DATA IS READ FROM FILE /home/ms20s284/FRACTIB/04_Results/03_hFE/455_L_97_F/Steps/Step31.inp                                                                                                                                                                                           

  *INCLUDE, input=/home/ms20s284/FRACTIB/04_Results/03_hFE/455_L_97_F/Steps/Step32.inp

  *** INPUT DATA IS READ FROM FILE /home/ms20s284/FRACTIB/04_Results/03_hFE/455_L_97_F/Steps/Step32.inp                                                                                                                                                                                           

  *INCLUDE, input=/home/ms20s284/FRACTIB/04_Results/03_hFE/455_L_97_F/Steps/Step33.inp

  *** INPUT DATA IS READ FROM FILE /home/ms20s284/FRACTIB/04_Results/03_hFE/455_L_97_F/Steps/Step33.inp                                                                                                                                                                                           

  *INCLUDE, input=/home/ms20s284/FRACTIB/04_Results/03_hFE/455_L_97_F/Steps/Step34.inp

  *** INPUT DATA IS READ FROM FILE /home/ms20s284/FRACTIB/04_Results/03_hFE/455_L_97_F/Steps/Step34.inp                                                                                                                                                                                           

  *INCLUDE, input=/home/ms20s284/FRACTIB/04_Results/03_hFE/455_L_97_F/Steps/Step35.inp

  *** INPUT DATA IS READ FROM FILE /home/ms20s284/FRACTIB/04_Results/03_hFE/455_L_97_F/Steps/Step35.inp                                                                                                                                                                                           

  *INCLUDE, input=/home/ms20s284/FRACTIB/04_Results/03_hFE/455_L_97_F/Steps/Step36.inp

  *** INPUT DATA IS READ FROM FILE /home/ms20s284/FRACTIB/04_Results/03_hFE/455_L_97_F/Steps/Step36.inp                                                                                                                                                                                           

  *INCLUDE, input=/home/ms20s284/FRACTIB/04_Results/03_hFE/455_L_97_F/Steps/Step37.inp

[...]
            NOTE
  
   10000000     -2.4000000E-03  2.4600000E-02 -5.2600000E-02 -4.0992916E-03  6.9248371E-04 -9.7424965E-05
  
  
  
   THE FOLLOWING TABLE IS PRINTED FOR NODES BELONGING TO NODE SET REF_NODE
  
       NODE FOOT-  RF1            RF2            RF3            RM1            RM2            RM3          
            NOTE
  
   10000000      2.6672233E+02  2.3560380E+03  1.6110048E+04 -7.1012285E+04 -8.1458656E+04  7.1510690E+03
  
  
  
   THE FOLLOWING TABLE IS PRINTED FOR NODES BELONGING TO NODE SET REF_NODE
  
       NODE FOOT-  CF1            CF2            CF3            CM1            CM2            CM3          
            NOTE
  
  ALL VALUES IN THIS TABLE ARE ZERO


                                INCREMENT     5 SUMMARY


 TIME INCREMENT COMPLETED  5.000E-02,  FRACTION OF STEP COMPLETED  0.250    
 STEP TIME COMPLETED       0.250    ,  TOTAL TIME COMPLETED         49.2    
  
  
  
  
                                       N O D E   O U T P U T
  
  
  
  
   THE FOLLOWING TABLE IS PRINTED FOR NODES BELONGING TO NODE SET REF_NODE
  
       NODE FOOT-  U1             U2             U3             UR1            UR2            UR3          
            NOTE
  
   10000000     -2.2500000E-03  2.4000000E-02 -5.2750000E-02 -4.1493163E-03  8.4237860E-04 -4.7134903E-05
  
  
  
   THE FOLLOWING TABLE IS PRINTED FOR NODES BELONGING TO NODE SET REF_NODE
  
       NODE FOOT-  RF1            RF2            RF3            RM1            RM2            RM3          
            NOTE
  
   10000000      2.7354883E+02  2.3321957E+03  1.6046404E+04 -7.1254402E+04 -7.7173010E+04  7.5506290E+03
  
  
  
   THE FOLLOWING TABLE IS PRINTED FOR NODES BELONGING TO NODE SET REF_NODE
  
       NODE FOOT-  CF1            CF2            CF3            CM1            CM2            CM3          
            NOTE
  
  ALL VALUES IN THIS TABLE ARE ZERO


                                INCREMENT     6 SUMMARY


 TIME INCREMENT COMPLETED  5.000E-02,  FRACTION OF STEP COMPLETED  0.300    
 STEP TIME COMPLETED       0.300    ,  TOTAL TIME COMPLETED         49.3    
  
  
  
  
                                       N O D E   O U T P U T
  
  
  
  
   THE FOLLOWING TABLE IS PRINTED FOR NODES BELONGING TO NODE SET REF_NODE
  
       NODE FOOT-  U1             U2             U3             UR1            UR2            UR3          
            NOTE
  
   10000000     -2.1000000E-03  2.3400000E-02 -5.2900000E-02 -4.1993409E-03  9.9227349E-04  3.1551614E-06
  
  
  
   THE FOLLOWING TABLE IS PRINTED FOR NODES BELONGING TO NODE SET REF_NODE
  
       NODE FOOT-  RF1            RF2            RF3            RM1            RM2            RM3          
            NOTE
  
   10000000      2.8046553E+02  2.3081897E+03  1.5984470E+04 -7.1496045E+04 -7.2901132E+04  7.9476711E+03
  
  
  
   THE FOLLOWING TABLE IS PRINTED FOR NODES BELONGING TO NODE SET REF_NODE
  
       NODE FOOT-  CF1            CF2            CF3            CM1            CM2            CM3          
            NOTE
  
  ALL VALUES IN THIS TABLE ARE ZERO


                                INCREMENT     7 SUMMARY


 TIME INCREMENT COMPLETED  5.000E-02,  FRACTION OF STEP COMPLETED  0.350    
 STEP TIME COMPLETED       0.350    ,  TOTAL TIME COMPLETED         49.3    
  
  
  
  
                                       N O D E   O U T P U T
  
  
  
  
   THE FOLLOWING TABLE IS PRINTED FOR NODES BELONGING TO NODE SET REF_NODE
  
       NODE FOOT-  U1             U2             U3             UR1            UR2            UR3          
            NOTE
  
   10000000     -1.9500000E-03  2.2800000E-02 -5.3050000E-02 -4.2493655E-03  1.1421684E-03  5.3445229E-05
  
  
  
   THE FOLLOWING TABLE IS PRINTED FOR NODES BELONGING TO NODE SET REF_NODE
  
       NODE FOOT-  RF1            RF2            RF3            RM1            RM2            RM3          
            NOTE
  
   10000000      2.8774994E+02  2.2834912E+03  1.5929500E+04 -7.1731921E+04 -6.8701997E+04  8.3359856E+03
  
  
  
   THE FOLLOWING TABLE IS PRINTED FOR NODES BELONGING TO NODE SET REF_NODE
  
       NODE FOOT-  CF1            CF2            CF3            CM1            CM2            CM3          
            NOTE
  
  ALL VALUES IN THIS TABLE ARE ZERO


                                INCREMENT     8 SUMMARY


 TIME INCREMENT COMPLETED  5.000E-02,  FRACTION OF STEP COMPLETED  0.400    
 STEP TIME COMPLETED       0.400    ,  TOTAL TIME COMPLETED         49.4    
  
  
  
  
                                       N O D E   O U T P U T
  
  
  
  
   THE FOLLOWING TABLE IS PRINTED FOR NODES BELONGING TO NODE SET REF_NODE
  
       NODE FOOT-  U1             U2             U3             UR1            UR2            UR3          
            NOTE
  
   10000000     -1.8000000E-03  2.2200000E-02 -5.3200000E-02 -4.2993901E-03  1.2920633E-03  1.0373530E-04
  
  
  
   THE FOLLOWING TABLE IS PRINTED FOR NODES BELONGING TO NODE SET REF_NODE
  
       NODE FOOT-  RF1            RF2            RF3            RM1            RM2            RM3          
            NOTE
  
   10000000      2.9500498E+02  2.2580722E+03  1.5882614E+04 -7.1945848E+04 -6.4588348E+04  8.7158814E+03
  
  
  
   THE FOLLOWING TABLE IS PRINTED FOR NODES BELONGING TO NODE SET REF_NODE
  
       NODE FOOT-  CF1            CF2            CF3            CM1            CM2            CM3          
            NOTE
  
  ALL VALUES IN THIS TABLE ARE ZERO


                                INCREMENT     9 SUMMARY


 TIME INCREMENT COMPLETED  5.000E-02,  FRACTION OF STEP COMPLETED  0.450    
 STEP TIME COMPLETED       0.450    ,  TOTAL TIME COMPLETED         49.4    
  
  
  
  
                                       N O D E   O U T P U T
  
  
  
  
   THE FOLLOWING TABLE IS PRINTED FOR NODES BELONGING TO NODE SET REF_NODE
  
       NODE FOOT-  U1             U2             U3             UR1            UR2            UR3          
            NOTE
  
   10000000     -1.6500000E-03  2.1600000E-02 -5.3350000E-02 -4.3494147E-03  1.4419582E-03  1.5402537E-04
  
  
  
   THE FOLLOWING TABLE IS PRINTED FOR NODES BELONGING TO NODE SET REF_NODE
  
       NODE FOOT-  RF1            RF2            RF3            RM1            RM2            RM3          
            NOTE
  
   10000000      3.0237461E+02  2.2324120E+03  1.5840895E+04 -7.2135569E+04 -6.0523147E+04  9.0915514E+03
  
  
  
   THE FOLLOWING TABLE IS PRINTED FOR NODES BELONGING TO NODE SET REF_NODE
  
       NODE FOOT-  CF1            CF2            CF3            CM1            CM2            CM3          
            NOTE
  
  ALL VALUES IN THIS TABLE ARE ZERO


                                INCREMENT    10 SUMMARY


 TIME INCREMENT COMPLETED  5.000E-02,  FRACTION OF STEP COMPLETED  0.500    
 STEP TIME COMPLETED       0.500    ,  TOTAL TIME COMPLETED         49.5    
  
  
  
  
                                       N O D E   O U T P U T
  
  
  
  
   THE FOLLOWING TABLE IS PRINTED FOR NODES BELONGING TO NODE SET REF_NODE
  
       NODE FOOT-  U1             U2             U3             UR1            UR2            UR3          
            NOTE
  
   10000000     -1.5000000E-03  2.1000000E-02 -5.3500000E-02 -4.3994392E-03  1.5918531E-03  2.0431545E-04
  
  
  
   THE FOLLOWING TABLE IS PRINTED FOR NODES BELONGING TO NODE SET REF_NODE
  
       NODE FOOT-  RF1            RF2            RF3            RM1            RM2            RM3          
            NOTE
  
   10000000      3.0978802E+02  2.2067086E+03  1.5802297E+04 -7.2308244E+04 -5.6483896E+04  9.4654452E+03
  
  
  
   THE FOLLOWING TABLE IS PRINTED FOR NODES BELONGING TO NODE SET REF_NODE
  
       NODE FOOT-  CF1            CF2            CF3            CM1            CM2            CM3          
            NOTE
  
  ALL VALUES IN THIS TABLE ARE ZERO


                                INCREMENT    11 SUMMARY


 TIME INCREMENT COMPLETED  5.000E-02,  FRACTION OF STEP COMPLETED  0.550    
 STEP TIME COMPLETED       0.550    ,  TOTAL TIME COMPLETED         49.5    
  
  
  
  
                                       N O D E   O U T P U T
  
  
  
  
   THE FOLLOWING TABLE IS PRINTED FOR NODES BELONGING TO NODE SET REF_NODE
  
       NODE FOOT-  U1             U2             U3             UR1            UR2            UR3          
            NOTE
  
   10000000     -1.3500000E-03  2.0400000E-02 -5.3650000E-02 -4.4494638E-03  1.7417480E-03  2.5460553E-04
  
  
  
   THE FOLLOWING TABLE IS PRINTED FOR NODES BELONGING TO NODE SET REF_NODE
  
       NODE FOOT-  RF1            RF2            RF3            RM1            RM2            RM3          
            NOTE
  
   10000000      3.1717600E+02  2.1810482E+03  1.5765266E+04 -7.2476031E+04 -5.2455626E+04  9.8389152E+03
  
  
  
   THE FOLLOWING TABLE IS PRINTED FOR NODES BELONGING TO NODE SET REF_NODE
  
       NODE FOOT-  CF1            CF2            CF3            CM1            CM2            CM3          
            NOTE
  
  ALL VALUES IN THIS TABLE ARE ZERO


                                INCREMENT    12 SUMMARY


 TIME INCREMENT COMPLETED  5.000E-02,  FRACTION OF STEP COMPLETED  0.600    
 STEP TIME COMPLETED       0.600    ,  TOTAL TIME COMPLETED         49.6    
  
  
  
  
                                       N O D E   O U T P U T
  
  
  
  
   THE FOLLOWING TABLE IS PRINTED FOR NODES BELONGING TO NODE SET REF_NODE
  
       NODE FOOT-  U1             U2             U3             UR1            UR2            UR3          
            NOTE
  
   10000000     -1.2000000E-03  1.9800000E-02 -5.3800000E-02 -4.4994883E-03  1.8916429E-03  3.0489561E-04
  
  
  
   THE FOLLOWING TABLE IS PRINTED FOR NODES BELONGING TO NODE SET REF_NODE
  
       NODE FOOT-  RF1            RF2            RF3            RM1            RM2            RM3          
            NOTE
  
   10000000      3.2447635E+02  2.1554135E+03  1.5729887E+04 -7.2638525E+04 -4.8439879E+04  1.0212224E+04
  
  
  
   THE FOLLOWING TABLE IS PRINTED FOR NODES BELONGING TO NODE SET REF_NODE
  
       NODE FOOT-  CF1            CF2            CF3            CM1            CM2            CM3          
            NOTE
  
  ALL VALUES IN THIS TABLE ARE ZERO


                                INCREMENT    13 SUMMARY


 TIME INCREMENT COMPLETED  5.000E-02,  FRACTION OF STEP COMPLETED  0.650    
 STEP TIME COMPLETED       0.650    ,  TOTAL TIME COMPLETED         49.6    
  
  
  
  
                                       N O D E   O U T P U T
  
  
  
  
   THE FOLLOWING TABLE IS PRINTED FOR NODES BELONGING TO NODE SET REF_NODE
  
       NODE FOOT-  U1             U2             U3             UR1            UR2            UR3          
            NOTE
  
   10000000     -1.0500000E-03  1.9200000E-02 -5.3950000E-02 -4.5495128E-03  2.0415378E-03  3.5518570E-04
  
  
  
   THE FOLLOWING TABLE IS PRINTED FOR NODES BELONGING TO NODE SET REF_NODE
  
       NODE FOOT-  RF1            RF2            RF3            RM1            RM2            RM3          
            NOTE
  
   10000000      3.3167538E+02  2.1297589E+03  1.5696670E+04 -7.2791850E+04 -4.4442000E+04  1.0584992E+04
  
  
  
   THE FOLLOWING TABLE IS PRINTED FOR NODES BELONGING TO NODE SET REF_NODE
  
       NODE FOOT-  CF1            CF2            CF3            CM1            CM2            CM3          
            NOTE
  
  ALL VALUES IN THIS TABLE ARE ZERO


                                INCREMENT    14 SUMMARY


 TIME INCREMENT COMPLETED  5.000E-02,  FRACTION OF STEP COMPLETED  0.700    
 STEP TIME COMPLETED       0.700    ,  TOTAL TIME COMPLETED         49.7    
  
  
  
  
                                       N O D E   O U T P U T
  
  
  
  
   THE FOLLOWING TABLE IS PRINTED FOR NODES BELONGING TO NODE SET REF_NODE
  
       NODE FOOT-  U1             U2             U3             UR1            UR2            UR3          
            NOTE
  
   10000000     -9.0000000E-04  1.8600000E-02 -5.4100000E-02 -4.5995373E-03  2.1914328E-03  4.0547579E-04
  
  
  
   THE FOLLOWING TABLE IS PRINTED FOR NODES BELONGING TO NODE SET REF_NODE
  
       NODE FOOT-  RF1            RF2            RF3            RM1            RM2            RM3          
            NOTE
  
   10000000      3.3888824E+02  2.1040241E+03  1.5664467E+04 -7.2941589E+04 -4.0450715E+04  1.0955945E+04
  
  
  
   THE FOLLOWING TABLE IS PRINTED FOR NODES BELONGING TO NODE SET REF_NODE
  
       NODE FOOT-  CF1            CF2            CF3            CM1            CM2            CM3          
            NOTE
  
  ALL VALUES IN THIS TABLE ARE ZERO


                                INCREMENT    15 SUMMARY


 TIME INCREMENT COMPLETED  5.000E-02,  FRACTION OF STEP COMPLETED  0.750    
 STEP TIME COMPLETED       0.750    ,  TOTAL TIME COMPLETED         49.7    
  
  
  
  
                                       N O D E   O U T P U T
  
  
  
  
   THE FOLLOWING TABLE IS PRINTED FOR NODES BELONGING TO NODE SET REF_NODE
  
       NODE FOOT-  U1             U2             U3             UR1            UR2            UR3          
            NOTE
  
   10000000     -7.5000000E-04  1.8000000E-02 -5.4250000E-02 -4.6495618E-03  2.3413277E-03  4.5576588E-04
  
  
  
   THE FOLLOWING TABLE IS PRINTED FOR NODES BELONGING TO NODE SET REF_NODE
  
       NODE FOOT-  RF1            RF2            RF3            RM1            RM2            RM3          
            NOTE
  
   10000000      3.4619152E+02  2.0779365E+03  1.5633080E+04 -7.3087747E+04 -3.6463541E+04  1.1321536E+04
  
  
  
   THE FOLLOWING TABLE IS PRINTED FOR NODES BELONGING TO NODE SET REF_NODE
  
       NODE FOOT-  CF1            CF2            CF3            CM1            CM2            CM3          
            NOTE
  
  ALL VALUES IN THIS TABLE ARE ZERO


                                INCREMENT    16 SUMMARY


 TIME INCREMENT COMPLETED  5.000E-02,  FRACTION OF STEP COMPLETED  0.800    
 STEP TIME COMPLETED       0.800    ,  TOTAL TIME COMPLETED         49.8    
  
  
  
  
                                       N O D E   O U T P U T
  
  
  
  
   THE FOLLOWING TABLE IS PRINTED FOR NODES BELONGING TO NODE SET REF_NODE
  
       NODE FOOT-  U1             U2             U3             UR1            UR2            UR3          
            NOTE
  
   10000000     -6.0000000E-04  1.7400000E-02 -5.4400000E-02 -4.6995863E-03  2.4912226E-03  5.0605597E-04
  
  
  
   THE FOLLOWING TABLE IS PRINTED FOR NODES BELONGING TO NODE SET REF_NODE
  
       NODE FOOT-  RF1            RF2            RF3            RM1            RM2            RM3          
            NOTE
  
   10000000      3.5361126E+02  2.0514861E+03  1.5602810E+04 -7.3230410E+04 -3.2484249E+04  1.1681203E+04
  
  
  
   THE FOLLOWING TABLE IS PRINTED FOR NODES BELONGING TO NODE SET REF_NODE
  
       NODE FOOT-  CF1            CF2            CF3            CM1            CM2            CM3          
            NOTE
  
  ALL VALUES IN THIS TABLE ARE ZERO


                                INCREMENT    17 SUMMARY


 TIME INCREMENT COMPLETED  5.000E-02,  FRACTION OF STEP COMPLETED  0.850    
 STEP TIME COMPLETED       0.850    ,  TOTAL TIME COMPLETED         49.8    
  
  
  
  
                                       N O D E   O U T P U T
  
  
  
  
   THE FOLLOWING TABLE IS PRINTED FOR NODES BELONGING TO NODE SET REF_NODE
  
       NODE FOOT-  U1             U2             U3             UR1            UR2            UR3          
            NOTE
  
   10000000     -4.5000000E-04  1.6800000E-02 -5.4550000E-02 -4.7496107E-03  2.6411176E-03  5.5634607E-04
  
  
  
   THE FOLLOWING TABLE IS PRINTED FOR NODES BELONGING TO NODE SET REF_NODE
  
       NODE FOOT-  RF1            RF2            RF3            RM1            RM2            RM3          
            NOTE
  
   10000000      3.6108109E+02  2.0248500E+03  1.5573557E+04 -7.3370824E+04 -2.8512299E+04  1.2037272E+04
  
  
  
   THE FOLLOWING TABLE IS PRINTED FOR NODES BELONGING TO NODE SET REF_NODE
  
       NODE FOOT-  CF1            CF2            CF3            CM1            CM2            CM3          
            NOTE
  
  ALL VALUES IN THIS TABLE ARE ZERO


                                INCREMENT    18 SUMMARY


 TIME INCREMENT COMPLETED  5.000E-02,  FRACTION OF STEP COMPLETED  0.900    
 STEP TIME COMPLETED       0.900    ,  TOTAL TIME COMPLETED         49.9    
  
  
  
  
                                       N O D E   O U T P U T
  
  
  
  
   THE FOLLOWING TABLE IS PRINTED FOR NODES BELONGING TO NODE SET REF_NODE
  
       NODE FOOT-  U1             U2             U3             UR1            UR2            UR3          
            NOTE
  
   10000000     -3.0000000E-04  1.6200000E-02 -5.4700000E-02 -4.7996352E-03  2.7910125E-03  6.0663617E-04
  
  
  
   THE FOLLOWING TABLE IS PRINTED FOR NODES BELONGING TO NODE SET REF_NODE
  
       NODE FOOT-  RF1            RF2            RF3            RM1            RM2            RM3          
            NOTE
  
   10000000      3.6866430E+02  1.9979498E+03  1.5545654E+04 -7.3508499E+04 -2.4551150E+04  1.2388277E+04
  
  
  
   THE FOLLOWING TABLE IS PRINTED FOR NODES BELONGING TO NODE SET REF_NODE
  
       NODE FOOT-  CF1            CF2            CF3            CM1            CM2            CM3          
            NOTE
  
  ALL VALUES IN THIS TABLE ARE ZERO


                                INCREMENT    19 SUMMARY


 TIME INCREMENT COMPLETED  5.000E-02,  FRACTION OF STEP COMPLETED  0.950    
 STEP TIME COMPLETED       0.950    ,  TOTAL TIME COMPLETED         49.9    
  
  
  
  
                                       N O D E   O U T P U T
  
  
  
  
   THE FOLLOWING TABLE IS PRINTED FOR NODES BELONGING TO NODE SET REF_NODE
  
       NODE FOOT-  U1             U2             U3             UR1            UR2            UR3          
            NOTE
  
   10000000     -1.5000000E-04  1.5600000E-02 -5.4850000E-02 -4.8496596E-03  2.9409075E-03  6.5692628E-04
  
  
  
   THE FOLLOWING TABLE IS PRINTED FOR NODES BELONGING TO NODE SET REF_NODE
  
       NODE FOOT-  RF1            RF2            RF3            RM1            RM2            RM3          
            NOTE
  
   10000000      3.7656594E+02  1.9700832E+03  1.5519622E+04 -7.3640498E+04 -2.0607109E+04  1.2724635E+04
  
  
  
   THE FOLLOWING TABLE IS PRINTED FOR NODES BELONGING TO NODE SET REF_NODE
  
       NODE FOOT-  CF1            CF2            CF3            CM1            CM2            CM3          
            NOTE
  
  ALL VALUES IN THIS TABLE ARE ZERO


                                INCREMENT    20 SUMMARY


 TIME INCREMENT COMPLETED  5.000E-02,  FRACTION OF STEP COMPLETED   1.00    
 STEP TIME COMPLETED        1.00    ,  TOTAL TIME COMPLETED         50.0    
  
  
  
  
                                       N O D E   O U T P U T
  
  
  
  
   THE FOLLOWING TABLE IS PRINTED FOR NODES BELONGING TO NODE SET REF_NODE
  
       NODE FOOT-  U1             U2             U3             UR1            UR2            UR3          
            NOTE
  
   10000000      0.0000000E+00  1.5000000E-02 -5.5000000E-02 -4.8996840E-03  3.0908024E-03  7.0721638E-04
  
  
  
   THE FOLLOWING TABLE IS PRINTED FOR NODES BELONGING TO NODE SET REF_NODE
  
       NODE FOOT-  RF1            RF2            RF3            RM1            RM2            RM3          
            NOTE
  
   10000000      3.8457475E+02  1.9417722E+03  1.5495001E+04 -7.3769481E+04 -1.6675279E+04  1.3053740E+04
  
  
  
   THE FOLLOWING TABLE IS PRINTED FOR NODES BELONGING TO NODE SET REF_NODE
  
       NODE FOOT-  CF1            CF2            CF3            CM1            CM2            CM3          
            NOTE
  
  ALL VALUES IN THIS TABLE ARE ZERO


          THE ANALYSIS HAS BEEN COMPLETED



                              ANALYSIS COMPLETE
                              WITH    586 WARNING MESSAGES ON THE DAT FILE



     JOB TIME SUMMARY
       USER TIME (SEC)      =   1548.1    
       SYSTEM TIME (SEC)    =   500.49    
       TOTAL CPU TIME (SEC) =   2048.6    
       WALLCLOCK TIME (SEC) =        158
