1

   Abaqus 2021.HF6                                  Date 02-May-2023   Time 08:36:09
   For use by UNIVERSITAET BERN under license from Dassault Systemes or its subsidiary.



                         The Abaqus Software is a product of:

                           Dassault Systemes SIMULIA Corp.
                           1301 Atwood Avenue, Suite 101W
                              Johnston, RI 02919, USA
 


                   The Abaqus Software is available only under license
                   from Dassault Systemes or its subsidiary and may be
                   used or reproduced only in accordance with the terms
                   of such license.
 
                          On machine artorg-skull 
                          you are authorized to run
                          Abaqus/Foundation until 31-Jan-2024

                          Your site id is: 200000000031934 


 
                    For assistance or any other information you may
                    obtain contact information for your local office
                    from the world wide web at:

                      http://www.3ds.com/products/simulia/locations/

 
                * * * * * * * * * * * * * * * * * * * * * * * * * * * * * * 
                *                                                         * 
                *                   *****************                     * 
                *                   *  N O T I C E  *                     * 
                *                   *****************                     * 
                *                                                         * 
                *                                                         * 
                *                     Abaqus 2021.HF6                     * 
                *                                                         * 
                *          BUILD ID: 2021_04_09-14.38.16 168095           * 
                *                                                         * 
                *                                                         * 
                *  Please make sure you are using                         * 
                *  release Abaqus 2021.HF6 manuals                        * 
                *  plus the notes accompanying this release.              * 
                *                                                         * 
                *                                                         * 
                *                                                         * 
                *                                                         * 
                *                                                         * 
                *   This program may not be used for commercial purposes  * 
                *           without payment of a commercial fee.          * 
                *                                                         * 
                * * * * * * * * * * * * * * * * * * * * * * * * * * * * * * 


 



     PROCESSING PART, INSTANCE, AND ASSEMBLY INFORMATION
   *******************************************************


     END PROCESSING PART, INSTANCE, AND ASSEMBLY INFORMATION
   ***********************************************************




     OPTIONS BEING PROCESSED
   ***************************


  *NODE
  *ELEMENT, TYPE=C3D8, ELSET=Elset268
  *NSET, NSET=TOPNODES
  *NSET, NSET=BOTNODES
  *NODE
  *NSET, NSET=REF_NODE
  *MATERIAL, NAME=Mat268
  *USER MATERIAL, CONSTANTS=7, UNSYMM, TYPE=MECHANICAL
  *DEPVAR
  *ORIENTATION, NAME=Orient268
  *SOLID SECTION, ELSET=Elset268,  MATERIAL=Mat268, ORIENTATION=Orient268
  *SOLID SECTION, ELSET=Elset268,  MATERIAL=Mat268, ORIENTATION=Orient268
  *BOUNDARY, TYPE=DISPLACEMENT
  *BOUNDARY, TYPE=DISPLACEMENT
  *BOUNDARY, TYPE=DISPLACEMENT
  *BOUNDARY, TYPE=DISPLACEMENT
  *KINEMATIC COUPLING, REF NODE=REF_NODE

 ***NOTE: WHENEVER A TRANSLATION (ROTATION) DOF AT A NODE IS CONSTRAINED BY A 
          KINEMATIC COUPLING DEFINITION THE TRANSLATION (ROTATION) DOFS FOR 
          THAT NODE CANNOT BE INCLUDED IN ANY OTHER CONSTRAINT INCLUDING MPCS, 
          RIGID BODIES, ETC.
  *OUTPUT,FIELD
  *OUTPUT, HISTORY
  *ELEMENT OUTPUT, POSITION=CENTROIDAL
  *OUTPUT,FIELD
  *OUTPUT, HISTORY
  *ELEMENT OUTPUT, POSITION=CENTROIDAL
  *OUTPUT,FIELD
  *OUTPUT, HISTORY
  *ELEMENT OUTPUT, POSITION=CENTROIDAL

 ***NOTE: MPCS (EXTERNAL or INTERNAL, including those generated from rigid body 
          definitions), KINEMATIC COUPLINGS, AND/OR EQUATIONS WILL ACTIVATE 
          ADDITIONAL DEGREES OF FREEDOM
  *STEP,AMPLITUDE=RAMP,UNSYMM=YES,INC=1000,NLGEOM=YES
  *OUTPUT,FIELD
  *OUTPUT, HISTORY
  *STEP,AMPLITUDE=RAMP,UNSYMM=YES,INC=1000,NLGEOM=YES
  *STEP,AMPLITUDE=RAMP,UNSYMM=YES,INC=1000,NLGEOM=YES

 ***ERROR: A PROCEDURE OPTION IS MISSING FOR STEP
 LINE IMAGE: *BOUNDARY, TYPE=DISPLACEMENT
 ***NOTE: DUE TO AN INPUT ERROR THE ANALYSIS PRE-PROCESSOR HAS BEEN UNABLE TO 
          INTERPRET SOME DATA.  SUBSEQUENT ERRORS MAY BE CAUSED BY THIS OMISSION
  *BOUNDARY, TYPE=DISPLACEMENT
  *OUTPUT,FIELD
  *ELEMENT OUTPUT, POSITION=CENTROIDAL
  *NODE OUTPUT
  *OUTPUT, HISTORY
  *NODE OUTPUT, NSET=REF_NODE
  *NODE PRINT, NSET=REF_NODE, FREQUENCY=1, SUMMARY=NO
  *END STEP

 ***WARNING: OUTPUT REQUEST SDV2 IS NOT AVAILABLE FOR THIS TYPE OF ANALYSIS

 ***WARNING: OUTPUT REQUEST SDV15 IS NOT AVAILABLE FOR THIS TYPE OF ANALYSIS

 ***WARNING: OUTPUT REQUEST SDV16 IS NOT AVAILABLE FOR THIS TYPE OF ANALYSIS

 ***WARNING: OUTPUT REQUEST SDV17 IS NOT AVAILABLE FOR THIS TYPE OF ANALYSIS

 ***WARNING: OUTPUT REQUEST SDV18 IS NOT AVAILABLE FOR THIS TYPE OF ANALYSIS

 ***WARNING: OUTPUT REQUEST SDV22 IS NOT AVAILABLE FOR THIS TYPE OF ANALYSIS

 ***WARNING: OUTPUT REQUEST SDV23 IS NOT AVAILABLE FOR THIS TYPE OF ANALYSIS

 ***WARNING: OUTPUT REQUEST SDV24 IS NOT AVAILABLE FOR THIS TYPE OF ANALYSIS

 ***WARNING: OUTPUT REQUEST SDV25 IS NOT AVAILABLE FOR THIS TYPE OF ANALYSIS

 ***WARNING: OUTPUT REQUEST SDV26 IS NOT AVAILABLE FOR THIS TYPE OF ANALYSIS

 ***WARNING: OUTPUT REQUEST SDV27 IS NOT AVAILABLE FOR THIS TYPE OF ANALYSIS

 ***WARNING: OUTPUT REQUEST SDV28 IS NOT AVAILABLE FOR THIS TYPE OF ANALYSIS

 ***WARNING: OUTPUT REQUEST SDV29 IS NOT AVAILABLE FOR THIS TYPE OF ANALYSIS

 ***WARNING: OUTPUT REQUEST SDV30 IS NOT AVAILABLE FOR THIS TYPE OF ANALYSIS

 ***WARNING: OUTPUT REQUEST SDV31 IS NOT AVAILABLE FOR THIS TYPE OF ANALYSIS

 ***WARNING: OUTPUT REQUEST S IS NOT AVAILABLE FOR THIS TYPE OF ANALYSIS

 ***WARNING: OUTPUT REQUEST LE IS NOT AVAILABLE FOR THIS TYPE OF ANALYSIS

 ***WARNING: OUTPUT REQUEST COORD IS NOT AVAILABLE FOR THIS TYPE OF ANALYSIS

 ***WARNING: OUTPUT REQUEST U IS NOT AVAILABLE FOR THIS TYPE OF ANALYSIS

 ***WARNING: OUTPUT REQUEST RF IS NOT AVAILABLE FOR THIS TYPE OF ANALYSIS

 ***WARNING: OUTPUT REQUEST CF IS NOT AVAILABLE FOR THIS TYPE OF ANALYSIS

 ***WARNING: OUTPUT REQUEST U IS NOT AVAILABLE FOR THIS TYPE OF ANALYSIS

 ***WARNING: OUTPUT REQUEST RF IS NOT AVAILABLE FOR THIS TYPE OF ANALYSIS

 ***WARNING: OUTPUT REQUEST U IS NOT AVAILABLE FOR THIS TYPE OF ANALYSIS

 ***WARNING: OUTPUT REQUEST RF IS NOT AVAILABLE FOR THIS TYPE OF ANALYSIS

 ***WARNING: OUTPUT REQUEST CF IS NOT AVAILABLE FOR THIS TYPE OF ANALYSIS
  *BOUNDARY, TYPE=DISPLACEMENT
  *STEP,AMPLITUDE=RAMP,UNSYMM=YES,INC=1000,NLGEOM=YES
  *BOUNDARY, TYPE=DISPLACEMENT
  *END STEP

 ***WARNING: OUTPUT REQUEST CF HAS BEEN REMOVED AS THERE ARE NO APPLICABLE 
             LOADS IN THIS STEP

 ***WARNING: DEGREE OF FREEDOM 3 IS NOT ACTIVE ON NODE 5 - THIS BOUNDARY 
             CONDITION IS IGNORED

 ***WARNING: DEGREE OF FREEDOM 3 IS NOT ACTIVE ON NODE 6 - THIS BOUNDARY 
             CONDITION IS IGNORED

 ***WARNING: DEGREE OF FREEDOM 3 IS NOT ACTIVE ON NODE 7 - THIS BOUNDARY 
             CONDITION IS IGNORED

 ***WARNING: DEGREE OF FREEDOM 3 IS NOT ACTIVE ON NODE 8 - THIS BOUNDARY 
             CONDITION IS IGNORED

 ***NOTE: Boundary conditions are specified on inactive dof of 4 nodes. The 
          nodes have been identified in node set WarnNodeBCInactiveDof.



                            P R O B L E M   S I Z E


          NUMBER OF ELEMENTS IS                                     1
          NUMBER OF NODES IS                                       13
          NUMBER OF NODES DEFINED BY THE USER                       9
          NUMBER OF INTERNAL NODES GENERATED BY THE PROGRAM         4
          TOTAL NUMBER OF VARIABLES IN THE MODEL                   54
          (DEGREES OF FREEDOM PLUS MAX NO. OF ANY LAGRANGE MULTIPLIER
           VARIABLES. INCLUDE *PRINT,SOLVE=YES TO GET THE ACTUAL NUMBER.)

 ***WARNING: AN OUTPUT DATABASE REQUEST THAT REQUIRES THE CALCULATOR HAS BEEN 
             FOUND.  IF VIEWING THE RESULTS BEFORE THE ANALYSIS IS COMPLETE, 
             PLEASE RUN THE CALCULATOR MANUALLY USING THE CONVERT=ODB AND 
             OLDJOB= OPTIONS.





          THE PROGRAM HAS DISCOVERED     1 FATAL ERRORS

               ** EXECUTION IS TERMINATED **



                              END OF USER INPUT PROCESSING



     JOB TIME SUMMARY
       USER TIME (SEC)      =  0.15000    
       SYSTEM TIME (SEC)    =  2.00000E-02
       TOTAL CPU TIME (SEC) =  0.17000    
       WALLCLOCK TIME (SEC) =          0
