 Abaqus/Standard 2021                  DATE 19-Feb-2023 TIME 14:50:10
 SUMMARY OF JOB INFORMATION:
 STEP  INC ATT SEVERE EQUIL TOTAL  TOTAL      STEP       INC OF       DOF    IF
               DISCON ITERS ITERS  TIME/    TIME/LPF    TIME/LPF    MONITOR RIKS
               ITERS               FREQ
   1     1   1     0     5     5  0.0500     0.0500     0.05000   
   1     2   1     0     5     5  0.100      0.100      0.05000   
   1     3   1     0     4     4  0.150      0.150      0.05000   
   1     4   1     0     4     4  0.200      0.200      0.05000   
   1     5   1     0     5     5  0.250      0.250      0.05000   
   1     6   1     0     6     6  0.300      0.300      0.05000   
   1     7   1     0     7     7  0.350      0.350      0.05000   
   1     8   1     0     7     7  0.400      0.400      0.05000   
   1     9   1     0     7     7  0.450      0.450      0.05000   
   1    10   1     0     7     7  0.500      0.500      0.05000   
   1    11   1     0     8     8  0.550      0.550      0.05000   
   1    12   1     0     8     8  0.600      0.600      0.05000   
   1    13   1U    0     9     9  0.600      0.600      0.05000   
   1    13   2     0     7     7  0.625      0.625      0.02500   
   1    14   1     0     9     9  0.650      0.650      0.02500   
   1    15   1U    0     9     9  0.650      0.650      0.02500   
   1    15   2     0    10    10  0.662      0.662      0.01250   
   1    16   1     0    10    10  0.675      0.675      0.01250   
   1    17   1U    0     5     5  0.675      0.675      0.01250   
   1    17   2     0     8     8  0.678      0.678      0.003125  
   1    18   1     0     8     8  0.681      0.681      0.003125  
   1    19   1     0     8     8  0.684      0.684      0.003125  
   1    20   1U    0     4     4  0.684      0.684      0.003125  
   1    20   2     0     8     8  0.685      0.685      0.0007813 
   1    21   1     0     9     9  0.686      0.686      0.0007813 
   1    22   1     0    12    12  0.687      0.687      0.0007813 
   1    23   1     0    13    13  0.687      0.687      0.0005859 
   1    24   1     0     8     8  0.688      0.688      0.0004395 
   1    25   1U    0     9     9  0.688      0.688      0.0004395 
   1    25   2     0    11    11  0.688      0.688      0.0002197 
   1    26   1     0    11    11  0.688      0.688      0.0001648 
   1    27   1     0     6     6  0.688      0.688      0.0001236 
   1    28   1     0    11    11  0.688      0.688      0.0001236 
   1    29   1     0    10    10  0.688      0.688      9.270e-05 
   1    30   1     0     9     9  0.689      0.689      9.270e-05 
   1    31   1     0     8     8  0.689      0.689      9.270e-05 
   1    32   1     0     8     8  0.689      0.689      9.270e-05 
   1    33   1     0     8     8  0.689      0.689      9.270e-05 
   1    34   1     0     7     7  0.689      0.689      9.270e-05 
   1    35   1     0     7     7  0.689      0.689      9.270e-05 
   1    36   1     0     6     6  0.689      0.689      9.270e-05 
   1    37   1     0     6     6  0.689      0.689      9.270e-05 
   1    38   1     0     6     6  0.689      0.689      9.270e-05 
   1    39   1     0     6     6  0.689      0.689      9.270e-05 
   1    40   1     0     9     9  0.689      0.689      9.270e-05 
   1    41   1     0     8     8  0.690      0.690      9.270e-05 
   1    42   1U    0     6     6  0.690      0.690      9.270e-05 
   1    42   2U    0    16    16  0.690      0.690      5.000e-05 
                          
 THE ANALYSIS HAS NOT BEEN COMPLETED
