1

   Abaqus 2021                                  Date 19-Feb-2023   Time 14:50:09
   For use by UNIVERSITAET BERN under license from Dassault Systemes or its subsidiary.

                                                                                 
                                                                                 
 STEP    1     INCREMENT     1     STEP TIME    0.00    


                        S T E P       1     S T A T I C   A N A L Y S I S


                                                                                          

     AUTOMATIC TIME CONTROL WITH -
          A SUGGESTED INITIAL TIME INCREMENT OF                5.000E-02
          AND A TOTAL TIME PERIOD OF                            1.00    
          THE MINIMUM TIME INCREMENT ALLOWED IS                5.000E-05
          THE MAXIMUM TIME INCREMENT ALLOWED IS                5.000E-02

     LINEAR EQUATION SOLVER TYPE         DIRECT SPARSE

 CONVERGENCE TOLERANCE PARAMETERS FOR FORCE    
     CRITERION FOR RESIDUAL FORCE     FOR A NONLINEAR PROBLEM          5.000E-03
     CRITERION FOR DISP.    CORRECTION IN A NONLINEAR PROBLEM          1.000E-02
     INITIAL VALUE OF TIME AVERAGE FORCE                               1.000E-02
     AVERAGE FORCE     IS TIME AVERAGE FORCE    
     ALTERNATE CRIT. FOR RESIDUAL FORCE     FOR A NONLINEAR PROBLEM    2.000E-02
     CRITERION FOR ZERO FORCE     RELATIVE TO TIME AVRG. FORCE         1.000E-05
     CRITERION FOR RESIDUAL FORCE     WHEN THERE IS ZERO FLUX          1.000E-05
     CRITERION FOR DISP.    CORRECTION WHEN THERE IS ZERO FLUX         1.000E-03
     CRITERION FOR RESIDUAL FORCE     FOR A LINEAR INCREMENT           1.000E-08
     FIELD CONVERSION RATIO                                             1.00    
     CRITERION FOR ZERO FORCE     REL. TO TIME AVRG. MAX. FORCE        1.000E-05
     CRITERION FOR ZERO DISP.    RELATIVE TO CHARACTERISTIC LENGTH     1.000E-08

 CONVERGENCE TOLERANCE PARAMETERS FOR MOMENT   
     CRITERION FOR RESIDUAL MOMENT    FOR A NONLINEAR PROBLEM          5.000E-03
     CRITERION FOR ROTATION CORRECTION IN A NONLINEAR PROBLEM          1.000E-02
     INITIAL VALUE OF TIME AVERAGE MOMENT                              1.000E-02
     AVERAGE MOMENT    IS TIME AVERAGE MOMENT   
     ALTERNATE CRIT. FOR RESIDUAL MOMENT    FOR A NONLINEAR PROBLEM    2.000E-02
     CRITERION FOR ZERO MOMENT    RELATIVE TO TIME AVRG. MOMENT        1.000E-05
     CRITERION FOR RESIDUAL MOMENT    WHEN THERE IS ZERO FLUX          1.000E-05
     CRITERION FOR ROTATION CORRECTION WHEN THERE IS ZERO FLUX         1.000E-03
     CRITERION FOR RESIDUAL MOMENT    FOR A LINEAR INCREMENT           1.000E-08
     FIELD CONVERSION RATIO                                             1.00    
     CRITERION FOR ZERO MOMENT    REL. TO TIME AVRG. MAX. MOMENT       1.000E-05

     VOLUMETRIC STRAIN COMPATIBILITY TOLERANCE FOR HYBRID SOLIDS       1.000E-05
     AXIAL STRAIN COMPATIBILITY TOLERANCE FOR HYBRID BEAMS             1.000E-05
     TRANS. SHEAR STRAIN COMPATIBILITY TOLERANCE FOR HYBRID BEAMS      1.000E-05
     SOFT CONTACT CONSTRAINT COMPATIBILITY TOLERANCE FOR P>P0          5.000E-03
     SOFT CONTACT CONSTRAINT COMPATIBILITY TOLERANCE FOR P=0.0         0.100    
     CONTACT FORCE ERROR TOLERANCE FOR CONVERT SDI=YES                 1.00    
     DISPLACEMENT COMPATIBILITY TOLERANCE FOR DCOUP ELEMENTS           1.000E-05
     ROTATION COMPATIBILITY TOLERANCE FOR DCOUP ELEMENTS               1.000E-05

 EQUILIBRIUM WILL BE CHECKED FOR SEVERE DISCONTINUITY ITERATIONS

 TIME INCREMENTATION CONTROL PARAMETERS:
     FIRST EQUILIBRIUM ITERATION FOR CONSECUTIVE DIVERGENCE CHECK              4
     EQUILIBRIUM ITERATION AT WHICH LOG. CONVERGENCE RATE CHECK BEGINS         8
     EQUILIBRIUM ITERATION AFTER WHICH ALTERNATE RESIDUAL IS USED              9
     MAXIMUM EQUILIBRIUM ITERATIONS ALLOWED                                   16
     EQUILIBRIUM ITERATION COUNT FOR CUT-BACK IN NEXT INCREMENT               10
     MAXIMUM EQUILIB. ITERS IN TWO INCREMENTS FOR TIME INCREMENT INCREASE      4
     MAXIMUM ITERATIONS FOR SEVERE DISCONTINUITIES                            50
     MAXIMUM ATTEMPTS ALLOWED IN AN INCREMENT                                  5
     MAXIMUM DISCON. ITERS IN TWO INCREMENTS FOR TIME INCREMENT INCREASE      50
     MAXIMUM CONTACT AUGMENTATIONS FOR *SURFACE BEHAVIOR,AUGMENTED LAGRANGE   50
     CUT-BACK FACTOR AFTER DIVERGENCE                                 0.2500    
     CUT-BACK FACTOR FOR TOO SLOW CONVERGENCE                         0.5000    
     CUT-BACK FACTOR AFTER TOO MANY EQUILIBRIUM ITERATIONS            0.7500    
     CUT-BACK FACTOR AFTER TOO MANY SEVERE DISCONTINUITY ITERATIONS   0.2500    
     CUT-BACK FACTOR AFTER PROBLEMS IN ELEMENT ASSEMBLY               0.2500    
     INCREASE FACTOR AFTER TWO INCREMENTS THAT CONVERGE QUICKLY        1.500    
     MAX. TIME INCREMENT INCREASE FACTOR ALLOWED                       1.500    
     MAX. TIME INCREMENT INCREASE FACTOR ALLOWED (DYNAMICS)            1.250    
     MAX. TIME INCREMENT INCREASE FACTOR ALLOWED (DIFFUSION)           2.000    
     MINIMUM TIME INCREMENT RATIO FOR EXTRAPOLATION TO OCCUR          0.1000    
     MAX. RATIO OF TIME INCREMENT TO STABILITY LIMIT                   1.000    
     FRACTION OF STABILITY LIMIT FOR NEW TIME INCREMENT               0.9500    
     TIME INCREMENT INCREASE FACTOR BEFORE A TIME POINT                1.000    
     GLOBAL STABILIZATION CONTROL IS NOT USED

          PRINT OF INCREMENT NUMBER, TIME, ETC., EVERY    1  INCREMENTS

     THE MAXIMUM NUMBER OF INCREMENTS IN THIS STEP IS                    1000

          LARGE DISPLACEMENT THEORY WILL BE USED

          UNSYMMETRIC MATRIX STORAGE AND SOLUTION WILL BE USED

     LINEAR EXTRAPOLATION WILL BE USED

     CHARACTERISTIC ELEMENT LENGTH      1.24    

     DETAILS REGARDING ACTUAL SOLUTION WAVEFRONT REQUESTED

     DETAILED OUTPUT OF DIAGNOSTICS TO DATABASE REQUESTED

     PRINT OF INCREMENT NUMBER, TIME, ETC., TO THE MESSAGE FILE EVERY     1  INCREMENTS

     ELEMENT OPERATIONS WILL BE CARRIED OUT IN PARALLEL USING  42 PROCESSORS

     PARALLEL CONTACT TRACKING ENABLED


     COLLECTING MODEL CONSTRAINT INFORMATION FOR OVERCONSTRAINT CHECKS

     COLLECTING STEP CONSTRAINT INFORMATION FOR OVERCONSTRAINT CHECKS


  INCREMENT     1 STARTS. ATTEMPT NUMBER  1, TIME INCREMENT  5.000E-02
 
     INITIAL ELEMENT LOAD BALANCE
            PROCESS    1   THREAD     NUMBER OF ELEMENTS
                              1            6
                              2            6
                              3            6
                              4            6
                              5            6
                              6            6
                              7            6
                              8            6
                              9            6
                             10            6
                             11            6
                             12            6
                             13            6
                             14            12
                             15            12
                             16            6
                             17            6
                             18            6
                             19            6
                             20            6
                             21            6
                             22            6
                             23            6
                             24            11
                             25            6
                             26            6
                             27            6
                             28            6
                             29            6
                             30            6
                             31            6
                             32            12
                             33            6
                             34            6
                             35            6
                             36            6
                             37            6
                             38            6
                             39            6
                             40            12
                             41            6
                             42            6

  NUMBER OF EQUATIONS =       975     NUMBER OF RHS =    1
  NUMBER OF FLOATING PT. OPERATIONS =  5.07E+06

  USING THE DIRECT SOLVER WITH  42 PROCESSORS

     CHECK POINT   START OF SOLVER    

     CHECK POINT  END OF SOLVER       

       ELAPSED USER TIME (SEC)      =   6.5900    
       ELAPSED SYSTEM TIME (SEC)    =  5.00000E-02
       ELAPSED TOTAL CPU TIME (SEC) =   6.6400    
       ELAPSED WALLCLOCK TIME (SEC) =          0

               CONVERGENCE CHECKS FOR EQUILIBRIUM ITERATION     1


 AVERAGE FORCE                       16.2       TIME AVG. FORCE        16.2    
 LARGEST RESIDUAL FORCE             -339.       AT NODE   10000000   DOF  1
 LARGEST INCREMENT OF DISP.         4.781E-02   AT NODE       1068   DOF  3
 LARGEST CORRECTION TO DISP.        4.781E-02   AT NODE       1068   DOF  3
          FORCE     EQUILIBRIUM NOT ACHIEVED WITHIN TOLERANCE.

 AVERAGE MOMENT                      0.00       TIME AVG. MOMENT       20.1    
                                                (FROM FORCE     FIELD)
 LARGEST RESIDUAL MOMENT            4.293E+04   AT NODE   10000000   DOF  5
 LARGEST INCREMENT OF ROTATION      1.670E-03   AT NODE        440   DOF  4
 LARGEST CORRECTION TO ROTATION     1.670E-03   AT NODE        440   DOF  4
          THE MOMENT    IS ZERO EVERYWHERE BUT THE MOMENT    RESIDUAL OR
          THE ROTATION CORRECTION IS NON-ZERO

  NUMBER OF EQUATIONS =       975     NUMBER OF RHS =    1
  NUMBER OF FLOATING PT. OPERATIONS =  5.07E+06

  USING THE DIRECT SOLVER WITH  42 PROCESSORS

     CHECK POINT   START OF SOLVER    

     CHECK POINT  END OF SOLVER       

       ELAPSED USER TIME (SEC)      =  0.87000    
       ELAPSED SYSTEM TIME (SEC)    =  0.13000    
       ELAPSED TOTAL CPU TIME (SEC) =   1.0000    
       ELAPSED WALLCLOCK TIME (SEC) =          0

               CONVERGENCE CHECKS FOR EQUILIBRIUM ITERATION     2


 AVERAGE FORCE                       14.9       TIME AVG. FORCE        14.9    
 LARGEST RESIDUAL FORCE             -9.65       AT NODE   10000000   DOF  2
 LARGEST INCREMENT OF DISP.         6.029E-02   AT NODE       1056   DOF  3
 LARGEST CORRECTION TO DISP.        1.249E-02   AT NODE       1056   DOF  3
          FORCE     EQUILIBRIUM NOT ACHIEVED WITHIN TOLERANCE.

 AVERAGE MOMENT                      0.00       TIME AVG. MOMENT       18.5    
                                                (FROM FORCE     FIELD)
 LARGEST RESIDUAL MOMENT            1.547E+03   AT NODE   10000000   DOF  5
 LARGEST INCREMENT OF ROTATION      2.516E-03   AT NODE        440   DOF  4
 LARGEST CORRECTION TO ROTATION     8.451E-04   AT NODE        440   DOF  4
          THE MOMENT    IS ZERO EVERYWHERE BUT THE MOMENT    RESIDUAL OR
          THE ROTATION CORRECTION IS NON-ZERO

  NUMBER OF EQUATIONS =       975     NUMBER OF RHS =    1
  NUMBER OF FLOATING PT. OPERATIONS =  5.07E+06

  USING THE DIRECT SOLVER WITH  42 PROCESSORS

     CHECK POINT   START OF SOLVER    

     CHECK POINT  END OF SOLVER       

       ELAPSED USER TIME (SEC)      =  0.90000    
       ELAPSED SYSTEM TIME (SEC)    =  0.13000    
       ELAPSED TOTAL CPU TIME (SEC) =   1.0300    
       ELAPSED WALLCLOCK TIME (SEC) =          1

               CONVERGENCE CHECKS FOR EQUILIBRIUM ITERATION     3


 AVERAGE FORCE                       14.9       TIME AVG. FORCE        14.9    
 LARGEST RESIDUAL FORCE             0.124       AT NODE   10000000   DOF  2
 LARGEST INCREMENT OF DISP.         6.067E-02   AT NODE       1056   DOF  3
 LARGEST CORRECTION TO DISP.        3.817E-04   AT NODE       1056   DOF  3
          FORCE     EQUILIBRIUM NOT ACHIEVED WITHIN TOLERANCE.

 AVERAGE MOMENT                      0.00       TIME AVG. MOMENT       18.4    
                                                (FROM FORCE     FIELD)
 LARGEST RESIDUAL MOMENT             48.0       AT NODE   10000000   DOF  5
 LARGEST INCREMENT OF ROTATION      2.535E-03   AT NODE        440   DOF  4
 LARGEST CORRECTION TO ROTATION     1.938E-05   AT NODE        440   DOF  4
          THE MOMENT    IS ZERO EVERYWHERE BUT THE MOMENT    RESIDUAL OR
          THE ROTATION CORRECTION IS NON-ZERO

  NUMBER OF EQUATIONS =       975     NUMBER OF RHS =    1
  NUMBER OF FLOATING PT. OPERATIONS =  5.07E+06

  USING THE DIRECT SOLVER WITH  42 PROCESSORS

     CHECK POINT   START OF SOLVER    

     CHECK POINT  END OF SOLVER       

       ELAPSED USER TIME (SEC)      =  0.21000    
       ELAPSED SYSTEM TIME (SEC)    =  0.11000    
       ELAPSED TOTAL CPU TIME (SEC) =  0.32000    
       ELAPSED WALLCLOCK TIME (SEC) =          0

               CONVERGENCE CHECKS FOR EQUILIBRIUM ITERATION     4


 AVERAGE FORCE                       14.9       TIME AVG. FORCE        14.9    
 LARGEST RESIDUAL FORCE            -1.445E-03   AT NODE   10000000   DOF  2
 LARGEST INCREMENT OF DISP.         6.069E-02   AT NODE       1056   DOF  3
 LARGEST CORRECTION TO DISP.        1.034E-05   AT NODE       1056   DOF  3
          THE FORCE     EQUILIBRIUM EQUATIONS HAVE CONVERGED

 AVERAGE MOMENT                      0.00       TIME AVG. MOMENT       18.4    
                                                (FROM FORCE     FIELD)
 LARGEST RESIDUAL MOMENT             1.50       AT NODE   10000000   DOF  5
 LARGEST INCREMENT OF ROTATION      2.535E-03   AT NODE        440   DOF  4
 LARGEST CORRECTION TO ROTATION     4.671E-07   AT NODE        440   DOF  5
          ALL ROTATION CORRECTIONS ARE ZERO
          THE MOMENT    IS ZERO EVERYWHERE BUT THE MOMENT    RESIDUAL OR
          THE ROTATION CORRECTION IS NON-ZERO

  NUMBER OF EQUATIONS =       975     NUMBER OF RHS =    1
  NUMBER OF FLOATING PT. OPERATIONS =  5.07E+06

  USING THE DIRECT SOLVER WITH  42 PROCESSORS

     CHECK POINT   START OF SOLVER    

     CHECK POINT  END OF SOLVER       

       ELAPSED USER TIME (SEC)      =  0.25000    
       ELAPSED SYSTEM TIME (SEC)    =  9.00000E-02
       ELAPSED TOTAL CPU TIME (SEC) =  0.34000    
       ELAPSED WALLCLOCK TIME (SEC) =          0

               CONVERGENCE CHECKS FOR EQUILIBRIUM ITERATION     5


 AVERAGE FORCE                       14.9       TIME AVG. FORCE        14.9    
 LARGEST RESIDUAL FORCE            -3.132E-05   AT NODE   10000000   DOF  1
 LARGEST INCREMENT OF DISP.         6.069E-02   AT NODE       1056   DOF  3
 LARGEST CORRECTION TO DISP.        2.898E-07   AT NODE       1056   DOF  3
          THE FORCE     EQUILIBRIUM EQUATIONS HAVE CONVERGED

 AVERAGE MOMENT                      0.00       TIME AVG. MOMENT       18.4    
                                                (FROM FORCE     FIELD)
 LARGEST RESIDUAL MOMENT            4.722E-02   AT NODE   10000000   DOF  5
 LARGEST INCREMENT OF ROTATION      2.535E-03   AT NODE        440   DOF  4
 LARGEST CORRECTION TO ROTATION     1.507E-08   AT NODE        440   DOF  5
          ALL ROTATION CORRECTIONS ARE ZERO

 ITERATION SUMMARY FOR THE INCREMENT:   5 TOTAL ITERATIONS, OF WHICH
   0 ARE SEVERE DISCONTINUITY ITERATIONS AND  5 ARE EQUILIBRIUM ITERATIONS.

 TIME INCREMENT COMPLETED  5.000E-02,  FRACTION OF STEP COMPLETED  5.000E-02
 STEP TIME COMPLETED       5.000E-02,  TOTAL TIME COMPLETED        5.000E-02


  INCREMENT     2 STARTS. ATTEMPT NUMBER  1, TIME INCREMENT  5.000E-02

  NUMBER OF EQUATIONS =       975     NUMBER OF RHS =    1
  NUMBER OF FLOATING PT. OPERATIONS =  5.07E+06

  USING THE DIRECT SOLVER WITH  42 PROCESSORS

     CHECK POINT   START OF SOLVER    

     CHECK POINT  END OF SOLVER       

       ELAPSED USER TIME (SEC)      =  0.22000    
       ELAPSED SYSTEM TIME (SEC)    =  0.10000    
       ELAPSED TOTAL CPU TIME (SEC) =  0.32000    
       ELAPSED WALLCLOCK TIME (SEC) =          0

               CONVERGENCE CHECKS FOR EQUILIBRIUM ITERATION     1


 AVERAGE FORCE                       27.0       TIME AVG. FORCE        20.9    
 LARGEST RESIDUAL FORCE             -9.08       AT NODE   10000000   DOF  1
 LARGEST INCREMENT OF DISP.         6.372E-02   AT NODE       1056   DOF  3
 LARGEST CORRECTION TO DISP.        3.034E-03   AT NODE       1056   DOF  3
          FORCE     EQUILIBRIUM NOT ACHIEVED WITHIN TOLERANCE.

 AVERAGE MOMENT                      0.00       TIME AVG. MOMENT       18.4    
                                                (FROM FORCE     FIELD)
 LARGEST RESIDUAL MOMENT             566.       AT NODE   10000000   DOF  5
 LARGEST INCREMENT OF ROTATION      2.574E-03   AT NODE        440   DOF  4
 LARGEST CORRECTION TO ROTATION     1.730E-04   AT NODE        440   DOF  5
          THE MOMENT    IS ZERO EVERYWHERE BUT THE MOMENT    RESIDUAL OR
          THE ROTATION CORRECTION IS NON-ZERO

  NUMBER OF EQUATIONS =       975     NUMBER OF RHS =    1
  NUMBER OF FLOATING PT. OPERATIONS =  5.07E+06

  USING THE DIRECT SOLVER WITH  42 PROCESSORS

     CHECK POINT   START OF SOLVER    

     CHECK POINT  END OF SOLVER       

       ELAPSED USER TIME (SEC)      =  0.19000    
       ELAPSED SYSTEM TIME (SEC)    =  0.11000    
       ELAPSED TOTAL CPU TIME (SEC) =  0.30000    
       ELAPSED WALLCLOCK TIME (SEC) =          0

               CONVERGENCE CHECKS FOR EQUILIBRIUM ITERATION     2


 AVERAGE FORCE                       27.0       TIME AVG. FORCE        20.9    
 LARGEST RESIDUAL FORCE             0.122       AT NODE   10000000   DOF  1
 LARGEST INCREMENT OF DISP.         6.382E-02   AT NODE       1056   DOF  3
 LARGEST CORRECTION TO DISP.       -1.024E-04   AT NODE       1068   DOF  1
          FORCE     EQUILIBRIUM NOT ACHIEVED WITHIN TOLERANCE.

 AVERAGE MOMENT                      0.00       TIME AVG. MOMENT       18.4    
                                                (FROM FORCE     FIELD)
 LARGEST RESIDUAL MOMENT             34.3       AT NODE   10000000   DOF  5
 LARGEST INCREMENT OF ROTATION      2.574E-03   AT NODE        440   DOF  4
 LARGEST CORRECTION TO ROTATION     5.723E-06   AT NODE        440   DOF  5
          THE MOMENT    IS ZERO EVERYWHERE BUT THE MOMENT    RESIDUAL OR
          THE ROTATION CORRECTION IS NON-ZERO

  NUMBER OF EQUATIONS =       975     NUMBER OF RHS =    1
  NUMBER OF FLOATING PT. OPERATIONS =  5.07E+06

  USING THE DIRECT SOLVER WITH  42 PROCESSORS

     CHECK POINT   START OF SOLVER    

     CHECK POINT  END OF SOLVER       

       ELAPSED USER TIME (SEC)      =  0.49000    
       ELAPSED SYSTEM TIME (SEC)    =  5.00000E-02
       ELAPSED TOTAL CPU TIME (SEC) =  0.54000    
       ELAPSED WALLCLOCK TIME (SEC) =          0

               CONVERGENCE CHECKS FOR EQUILIBRIUM ITERATION     3


 AVERAGE FORCE                       27.0       TIME AVG. FORCE        20.9    
 LARGEST RESIDUAL FORCE            -3.849E-03   AT NODE   10000000   DOF  1
 LARGEST INCREMENT OF DISP.         6.382E-02   AT NODE       1056   DOF  3
 LARGEST CORRECTION TO DISP.       -5.808E-06   AT NODE       1040   DOF  3
          THE FORCE     EQUILIBRIUM EQUATIONS HAVE CONVERGED

 AVERAGE MOMENT                      0.00       TIME AVG. MOMENT       18.4    
                                                (FROM FORCE     FIELD)
 LARGEST RESIDUAL MOMENT             2.07       AT NODE   10000000   DOF  5
 LARGEST INCREMENT OF ROTATION      2.574E-03   AT NODE        440   DOF  4
 LARGEST CORRECTION TO ROTATION     3.482E-07   AT NODE        440   DOF  5
          ALL ROTATION CORRECTIONS ARE ZERO
          THE MOMENT    IS ZERO EVERYWHERE BUT THE MOMENT    RESIDUAL OR
          THE ROTATION CORRECTION IS NON-ZERO

  NUMBER OF EQUATIONS =       975     NUMBER OF RHS =    1
  NUMBER OF FLOATING PT. OPERATIONS =  5.07E+06

  USING THE DIRECT SOLVER WITH  42 PROCESSORS

     CHECK POINT   START OF SOLVER    

     CHECK POINT  END OF SOLVER       

       ELAPSED USER TIME (SEC)      =  0.30000    
       ELAPSED SYSTEM TIME (SEC)    =  3.00000E-02
       ELAPSED TOTAL CPU TIME (SEC) =  0.33000    
       ELAPSED WALLCLOCK TIME (SEC) =          0

               CONVERGENCE CHECKS FOR EQUILIBRIUM ITERATION     4


 AVERAGE FORCE                       27.0       TIME AVG. FORCE        20.9    
 LARGEST RESIDUAL FORCE             5.326E-05   AT NODE   10000000   DOF  2
 LARGEST INCREMENT OF DISP.         6.382E-02   AT NODE       1056   DOF  3
 LARGEST CORRECTION TO DISP.       -3.688E-07   AT NODE       1040   DOF  3
          THE FORCE     EQUILIBRIUM EQUATIONS HAVE CONVERGED

 AVERAGE MOMENT                      0.00       TIME AVG. MOMENT       18.4    
                                                (FROM FORCE     FIELD)
 LARGEST RESIDUAL MOMENT            0.125       AT NODE   10000000   DOF  5
 LARGEST INCREMENT OF ROTATION      2.574E-03   AT NODE        440   DOF  4
 LARGEST CORRECTION TO ROTATION     2.126E-08   AT NODE        440   DOF  5
          ALL ROTATION CORRECTIONS ARE ZERO
          THE MOMENT    IS ZERO EVERYWHERE BUT THE MOMENT    RESIDUAL OR
          THE ROTATION CORRECTION IS NON-ZERO

  NUMBER OF EQUATIONS =       975     NUMBER OF RHS =    1
  NUMBER OF FLOATING PT. OPERATIONS =  5.07E+06

  USING THE DIRECT SOLVER WITH  42 PROCESSORS

     CHECK POINT   START OF SOLVER    

     CHECK POINT  END OF SOLVER       

       ELAPSED USER TIME (SEC)      =  0.26000    
       ELAPSED SYSTEM TIME (SEC)    =  6.00000E-02
       ELAPSED TOTAL CPU TIME (SEC) =  0.32000    
       ELAPSED WALLCLOCK TIME (SEC) =          0

               CONVERGENCE CHECKS FOR EQUILIBRIUM ITERATION     5


 AVERAGE FORCE                       27.0       TIME AVG. FORCE        20.9    
 LARGEST RESIDUAL FORCE            -5.966E-06   AT NODE   10000000   DOF  1
 LARGEST INCREMENT OF DISP.         6.382E-02   AT NODE       1056   DOF  3
 LARGEST CORRECTION TO DISP.       -2.301E-08   AT NODE       1040   DOF  3
          THE FORCE     EQUILIBRIUM EQUATIONS HAVE CONVERGED

 AVERAGE MOMENT                      0.00       TIME AVG. MOMENT       18.4    
                                                (FROM FORCE     FIELD)
 LARGEST RESIDUAL MOMENT            7.596E-03   AT NODE   10000000   DOF  5
 LARGEST INCREMENT OF ROTATION      2.574E-03   AT NODE        440   DOF  4
 LARGEST CORRECTION TO ROTATION     1.295E-09   AT NODE        440   DOF  5
          ALL ROTATION CORRECTIONS ARE ZERO

 ITERATION SUMMARY FOR THE INCREMENT:   5 TOTAL ITERATIONS, OF WHICH
   0 ARE SEVERE DISCONTINUITY ITERATIONS AND  5 ARE EQUILIBRIUM ITERATIONS.

 TIME INCREMENT COMPLETED  5.000E-02,  FRACTION OF STEP COMPLETED  0.100    
 STEP TIME COMPLETED       0.100    ,  TOTAL TIME COMPLETED        0.100    


  INCREMENT     3 STARTS. ATTEMPT NUMBER  1, TIME INCREMENT  5.000E-02

  NUMBER OF EQUATIONS =       975     NUMBER OF RHS =    1
  NUMBER OF FLOATING PT. OPERATIONS =  5.07E+06

  USING THE DIRECT SOLVER WITH  42 PROCESSORS

     CHECK POINT   START OF SOLVER    

     CHECK POINT  END OF SOLVER       

       ELAPSED USER TIME (SEC)      =  0.24000    
       ELAPSED SYSTEM TIME (SEC)    =  8.00000E-02
       ELAPSED TOTAL CPU TIME (SEC) =  0.32000    
       ELAPSED WALLCLOCK TIME (SEC) =          0

               CONVERGENCE CHECKS FOR EQUILIBRIUM ITERATION     1


 AVERAGE FORCE                       39.0       TIME AVG. FORCE        27.0    
 LARGEST RESIDUAL FORCE            -0.375       AT NODE   10000000   DOF  1
 LARGEST INCREMENT OF DISP.         6.397E-02   AT NODE       1056   DOF  3
 LARGEST CORRECTION TO DISP.        1.455E-03   AT NODE        762   DOF  2
          FORCE     EQUILIBRIUM NOT ACHIEVED WITHIN TOLERANCE.

 AVERAGE MOMENT                      0.00       TIME AVG. MOMENT       26.0    
                                                (FROM FORCE     FIELD)
 LARGEST RESIDUAL MOMENT             140.       AT NODE   10000000   DOF  5
 LARGEST INCREMENT OF ROTATION      2.552E-03   AT NODE        440   DOF  4
 LARGEST CORRECTION TO ROTATION    -4.189E-05   AT NODE        440   DOF  6
          THE MOMENT    IS ZERO EVERYWHERE BUT THE MOMENT    RESIDUAL OR
          THE ROTATION CORRECTION IS NON-ZERO

  NUMBER OF EQUATIONS =       975     NUMBER OF RHS =    1
  NUMBER OF FLOATING PT. OPERATIONS =  5.07E+06

  USING THE DIRECT SOLVER WITH  42 PROCESSORS

     CHECK POINT   START OF SOLVER    

     CHECK POINT  END OF SOLVER       

       ELAPSED USER TIME (SEC)      =  0.22000    
       ELAPSED SYSTEM TIME (SEC)    =  0.10000    
       ELAPSED TOTAL CPU TIME (SEC) =  0.32000    
       ELAPSED WALLCLOCK TIME (SEC) =          0

               CONVERGENCE CHECKS FOR EQUILIBRIUM ITERATION     2


 AVERAGE FORCE                       39.0       TIME AVG. FORCE        27.0    
 LARGEST RESIDUAL FORCE            -2.433E-02   AT NODE   10000000   DOF  1
 LARGEST INCREMENT OF DISP.         6.398E-02   AT NODE       1056   DOF  3
 LARGEST CORRECTION TO DISP.        5.079E-05   AT NODE       1056   DOF  2
          THE FORCE     EQUILIBRIUM EQUATIONS HAVE CONVERGED

 AVERAGE MOMENT                      0.00       TIME AVG. MOMENT       26.0    
                                                (FROM FORCE     FIELD)
 LARGEST RESIDUAL MOMENT             12.6       AT NODE   10000000   DOF  5
 LARGEST INCREMENT OF ROTATION      2.552E-03   AT NODE        440   DOF  4
 LARGEST CORRECTION TO ROTATION    -2.823E-06   AT NODE        440   DOF  6
          THE MOMENT    IS ZERO EVERYWHERE BUT THE MOMENT    RESIDUAL OR
          THE ROTATION CORRECTION IS NON-ZERO

  NUMBER OF EQUATIONS =       975     NUMBER OF RHS =    1
  NUMBER OF FLOATING PT. OPERATIONS =  5.07E+06

  USING THE DIRECT SOLVER WITH  42 PROCESSORS

     CHECK POINT   START OF SOLVER    

     CHECK POINT  END OF SOLVER       

       ELAPSED USER TIME (SEC)      =  0.21000    
       ELAPSED SYSTEM TIME (SEC)    =  7.00000E-02
       ELAPSED TOTAL CPU TIME (SEC) =  0.28000    
       ELAPSED WALLCLOCK TIME (SEC) =          0

               CONVERGENCE CHECKS FOR EQUILIBRIUM ITERATION     3


 AVERAGE FORCE                       39.0       TIME AVG. FORCE        27.0    
 LARGEST RESIDUAL FORCE             8.672E-04   AT NODE   10000000   DOF  2
 LARGEST INCREMENT OF DISP.         6.398E-02   AT NODE       1056   DOF  3
 LARGEST CORRECTION TO DISP.       -2.457E-06   AT NODE       1040   DOF  3
          THE FORCE     EQUILIBRIUM EQUATIONS HAVE CONVERGED

 AVERAGE MOMENT                      0.00       TIME AVG. MOMENT       26.0    
                                                (FROM FORCE     FIELD)
 LARGEST RESIDUAL MOMENT             1.12       AT NODE   10000000   DOF  5
 LARGEST INCREMENT OF ROTATION      2.552E-03   AT NODE        440   DOF  4
 LARGEST CORRECTION TO ROTATION     1.270E-07   AT NODE        440   DOF  5
          ALL ROTATION CORRECTIONS ARE ZERO
          THE MOMENT    IS ZERO EVERYWHERE BUT THE MOMENT    RESIDUAL OR
          THE ROTATION CORRECTION IS NON-ZERO

  NUMBER OF EQUATIONS =       975     NUMBER OF RHS =    1
  NUMBER OF FLOATING PT. OPERATIONS =  5.07E+06

  USING THE DIRECT SOLVER WITH  42 PROCESSORS

     CHECK POINT   START OF SOLVER    

     CHECK POINT  END OF SOLVER       

       ELAPSED USER TIME (SEC)      =  0.24000    
       ELAPSED SYSTEM TIME (SEC)    =  8.00000E-02
       ELAPSED TOTAL CPU TIME (SEC) =  0.32000    
       ELAPSED WALLCLOCK TIME (SEC) =          0

               CONVERGENCE CHECKS FOR EQUILIBRIUM ITERATION     4


 AVERAGE FORCE                       39.0       TIME AVG. FORCE        27.0    
 LARGEST RESIDUAL FORCE            -9.072E-05   AT NODE   10000000   DOF  1
 LARGEST INCREMENT OF DISP.         6.398E-02   AT NODE       1056   DOF  3
 LARGEST CORRECTION TO DISP.       -2.137E-07   AT NODE       1040   DOF  3
          THE FORCE     EQUILIBRIUM EQUATIONS HAVE CONVERGED

 AVERAGE MOMENT                      0.00       TIME AVG. MOMENT       26.0    
                                                (FROM FORCE     FIELD)
 LARGEST RESIDUAL MOMENT            9.941E-02   AT NODE   10000000   DOF  5
 LARGEST INCREMENT OF ROTATION      2.552E-03   AT NODE        440   DOF  4
 LARGEST CORRECTION TO ROTATION     1.123E-08   AT NODE        440   DOF  5
          ALL ROTATION CORRECTIONS ARE ZERO

 ITERATION SUMMARY FOR THE INCREMENT:   4 TOTAL ITERATIONS, OF WHICH
   0 ARE SEVERE DISCONTINUITY ITERATIONS AND  4 ARE EQUILIBRIUM ITERATIONS.

 TIME INCREMENT COMPLETED  5.000E-02,  FRACTION OF STEP COMPLETED  0.150    
 STEP TIME COMPLETED       0.150    ,  TOTAL TIME COMPLETED        0.150    


  INCREMENT     4 STARTS. ATTEMPT NUMBER  1, TIME INCREMENT  5.000E-02

  NUMBER OF EQUATIONS =       975     NUMBER OF RHS =    1
  NUMBER OF FLOATING PT. OPERATIONS =  5.07E+06

  USING THE DIRECT SOLVER WITH  42 PROCESSORS

     CHECK POINT   START OF SOLVER    

     CHECK POINT  END OF SOLVER       

       ELAPSED USER TIME (SEC)      =  0.22000    
       ELAPSED SYSTEM TIME (SEC)    =  7.00000E-02
       ELAPSED TOTAL CPU TIME (SEC) =  0.29000    
       ELAPSED WALLCLOCK TIME (SEC) =          0

               CONVERGENCE CHECKS FOR EQUILIBRIUM ITERATION     1


 AVERAGE FORCE                       50.9       TIME AVG. FORCE        32.9    
 LARGEST RESIDUAL FORCE            -0.719       AT NODE   10000000   DOF  2
 LARGEST INCREMENT OF DISP.         6.359E-02   AT NODE       1056   DOF  3
 LARGEST CORRECTION TO DISP.        1.306E-03   AT NODE        762   DOF  2
          FORCE     EQUILIBRIUM NOT ACHIEVED WITHIN TOLERANCE.

 AVERAGE MOMENT                      0.00       TIME AVG. MOMENT       33.4    
                                                (FROM FORCE     FIELD)
 LARGEST RESIDUAL MOMENT            -94.7       AT NODE   10000000   DOF  4
 LARGEST INCREMENT OF ROTATION      2.481E-03   AT NODE        440   DOF  4
 LARGEST CORRECTION TO ROTATION    -7.068E-05   AT NODE        440   DOF  4
          THE MOMENT    IS ZERO EVERYWHERE BUT THE MOMENT    RESIDUAL OR
          THE ROTATION CORRECTION IS NON-ZERO

  NUMBER OF EQUATIONS =       975     NUMBER OF RHS =    1
  NUMBER OF FLOATING PT. OPERATIONS =  5.07E+06

  USING THE DIRECT SOLVER WITH  42 PROCESSORS

     CHECK POINT   START OF SOLVER    

     CHECK POINT  END OF SOLVER       

       ELAPSED USER TIME (SEC)      =  0.25000    
       ELAPSED SYSTEM TIME (SEC)    =  3.00000E-02
       ELAPSED TOTAL CPU TIME (SEC) =  0.28000    
       ELAPSED WALLCLOCK TIME (SEC) =          0

               CONVERGENCE CHECKS FOR EQUILIBRIUM ITERATION     2


 AVERAGE FORCE                       50.9       TIME AVG. FORCE        32.9    
 LARGEST RESIDUAL FORCE            -3.948E-02   AT NODE   10000000   DOF  1
 LARGEST INCREMENT OF DISP.         6.358E-02   AT NODE       1056   DOF  3
 LARGEST CORRECTION TO DISP.       -4.309E-05   AT NODE        998   DOF  2
          THE FORCE     EQUILIBRIUM EQUATIONS HAVE CONVERGED

 AVERAGE MOMENT                      0.00       TIME AVG. MOMENT       33.4    
                                                (FROM FORCE     FIELD)
 LARGEST RESIDUAL MOMENT             9.26       AT NODE   10000000   DOF  5
 LARGEST INCREMENT OF ROTATION      2.477E-03   AT NODE        440   DOF  4
 LARGEST CORRECTION TO ROTATION    -3.850E-06   AT NODE        440   DOF  4
          THE MOMENT    IS ZERO EVERYWHERE BUT THE MOMENT    RESIDUAL OR
          THE ROTATION CORRECTION IS NON-ZERO

  NUMBER OF EQUATIONS =       975     NUMBER OF RHS =    1
  NUMBER OF FLOATING PT. OPERATIONS =  5.07E+06

  USING THE DIRECT SOLVER WITH  42 PROCESSORS

     CHECK POINT   START OF SOLVER    

     CHECK POINT  END OF SOLVER       

       ELAPSED USER TIME (SEC)      =  0.26000    
       ELAPSED SYSTEM TIME (SEC)    =  4.00000E-02
       ELAPSED TOTAL CPU TIME (SEC) =  0.30000    
       ELAPSED WALLCLOCK TIME (SEC) =          0

               CONVERGENCE CHECKS FOR EQUILIBRIUM ITERATION     3


 AVERAGE FORCE                       50.9       TIME AVG. FORCE        32.9    
 LARGEST RESIDUAL FORCE             9.592E-04   AT NODE   10000000   DOF  2
 LARGEST INCREMENT OF DISP.         6.358E-02   AT NODE       1056   DOF  3
 LARGEST CORRECTION TO DISP.       -3.878E-06   AT NODE       1040   DOF  3
          THE FORCE     EQUILIBRIUM EQUATIONS HAVE CONVERGED

 AVERAGE MOMENT                      0.00       TIME AVG. MOMENT       33.4    
                                                (FROM FORCE     FIELD)
 LARGEST RESIDUAL MOMENT             1.14       AT NODE   10000000   DOF  5
 LARGEST INCREMENT OF ROTATION      2.477E-03   AT NODE        440   DOF  4
 LARGEST CORRECTION TO ROTATION    -3.025E-07   AT NODE        440   DOF  4
          ALL ROTATION CORRECTIONS ARE ZERO
          THE MOMENT    IS ZERO EVERYWHERE BUT THE MOMENT    RESIDUAL OR
          THE ROTATION CORRECTION IS NON-ZERO

  NUMBER OF EQUATIONS =       975     NUMBER OF RHS =    1
  NUMBER OF FLOATING PT. OPERATIONS =  5.07E+06

  USING THE DIRECT SOLVER WITH  42 PROCESSORS

     CHECK POINT   START OF SOLVER    

     CHECK POINT  END OF SOLVER       

       ELAPSED USER TIME (SEC)      =  0.22000    
       ELAPSED SYSTEM TIME (SEC)    =  7.00000E-02
       ELAPSED TOTAL CPU TIME (SEC) =  0.29000    
       ELAPSED WALLCLOCK TIME (SEC) =          0

               CONVERGENCE CHECKS FOR EQUILIBRIUM ITERATION     4


 AVERAGE FORCE                       50.9       TIME AVG. FORCE        32.9    
 LARGEST RESIDUAL FORCE            -1.734E-04   AT NODE   10000000   DOF  1
 LARGEST INCREMENT OF DISP.         6.358E-02   AT NODE       1056   DOF  3
 LARGEST CORRECTION TO DISP.       -3.703E-07   AT NODE       1040   DOF  3
          THE FORCE     EQUILIBRIUM EQUATIONS HAVE CONVERGED

 AVERAGE MOMENT                      0.00       TIME AVG. MOMENT       33.4    
                                                (FROM FORCE     FIELD)
 LARGEST RESIDUAL MOMENT            0.137       AT NODE   10000000   DOF  5
 LARGEST INCREMENT OF ROTATION      2.477E-03   AT NODE        440   DOF  4
 LARGEST CORRECTION TO ROTATION    -2.412E-08   AT NODE        440   DOF  4
          ALL ROTATION CORRECTIONS ARE ZERO

 ITERATION SUMMARY FOR THE INCREMENT:   4 TOTAL ITERATIONS, OF WHICH
   0 ARE SEVERE DISCONTINUITY ITERATIONS AND  4 ARE EQUILIBRIUM ITERATIONS.

 TIME INCREMENT COMPLETED  5.000E-02,  FRACTION OF STEP COMPLETED  0.200    
 STEP TIME COMPLETED       0.200    ,  TOTAL TIME COMPLETED        0.200    


  INCREMENT     5 STARTS. ATTEMPT NUMBER  1, TIME INCREMENT  5.000E-02

  NUMBER OF EQUATIONS =       975     NUMBER OF RHS =    1
  NUMBER OF FLOATING PT. OPERATIONS =  5.07E+06

  USING THE DIRECT SOLVER WITH  42 PROCESSORS

     CHECK POINT   START OF SOLVER    

     CHECK POINT  END OF SOLVER       

       ELAPSED USER TIME (SEC)      =  0.25000    
       ELAPSED SYSTEM TIME (SEC)    =  7.00000E-02
       ELAPSED TOTAL CPU TIME (SEC) =  0.32000    
       ELAPSED WALLCLOCK TIME (SEC) =          0

               CONVERGENCE CHECKS FOR EQUILIBRIUM ITERATION     1


 AVERAGE FORCE                       63.0       TIME AVG. FORCE        39.0    
 LARGEST RESIDUAL FORCE            -0.842       AT NODE   10000000   DOF  2
 LARGEST INCREMENT OF DISP.         6.289E-02   AT NODE       1056   DOF  3
 LARGEST CORRECTION TO DISP.        1.066E-03   AT NODE        762   DOF  2
          FORCE     EQUILIBRIUM NOT ACHIEVED WITHIN TOLERANCE.

 AVERAGE MOMENT                      0.00       TIME AVG. MOMENT       40.9    
                                                (FROM FORCE     FIELD)
 LARGEST RESIDUAL MOMENT            -201.       AT NODE   10000000   DOF  5
 LARGEST INCREMENT OF ROTATION      2.412E-03   AT NODE        440   DOF  4
 LARGEST CORRECTION TO ROTATION    -6.445E-05   AT NODE        440   DOF  4
          THE MOMENT    IS ZERO EVERYWHERE BUT THE MOMENT    RESIDUAL OR
          THE ROTATION CORRECTION IS NON-ZERO

  NUMBER OF EQUATIONS =       975     NUMBER OF RHS =    1
  NUMBER OF FLOATING PT. OPERATIONS =  5.07E+06

  USING THE DIRECT SOLVER WITH  42 PROCESSORS

     CHECK POINT   START OF SOLVER    

     CHECK POINT  END OF SOLVER       

       ELAPSED USER TIME (SEC)      =  0.21000    
       ELAPSED SYSTEM TIME (SEC)    =  7.00000E-02
       ELAPSED TOTAL CPU TIME (SEC) =  0.28000    
       ELAPSED WALLCLOCK TIME (SEC) =          0

               CONVERGENCE CHECKS FOR EQUILIBRIUM ITERATION     2


 AVERAGE FORCE                       63.0       TIME AVG. FORCE        39.0    
 LARGEST RESIDUAL FORCE            -3.695E-02   AT NODE   10000000   DOF  1
 LARGEST INCREMENT OF DISP.         6.283E-02   AT NODE       1056   DOF  3
 LARGEST CORRECTION TO DISP.       -5.671E-05   AT NODE       1056   DOF  3
          THE FORCE     EQUILIBRIUM EQUATIONS HAVE CONVERGED

 AVERAGE MOMENT                      0.00       TIME AVG. MOMENT       40.9    
                                                (FROM FORCE     FIELD)
 LARGEST RESIDUAL MOMENT            -26.6       AT NODE   10000000   DOF  5
 LARGEST INCREMENT OF ROTATION      2.408E-03   AT NODE        440   DOF  4
 LARGEST CORRECTION TO ROTATION    -4.518E-06   AT NODE        440   DOF  4
          THE MOMENT    IS ZERO EVERYWHERE BUT THE MOMENT    RESIDUAL OR
          THE ROTATION CORRECTION IS NON-ZERO

  NUMBER OF EQUATIONS =       975     NUMBER OF RHS =    1
  NUMBER OF FLOATING PT. OPERATIONS =  5.07E+06

  USING THE DIRECT SOLVER WITH  42 PROCESSORS

     CHECK POINT   START OF SOLVER    

     CHECK POINT  END OF SOLVER       

       ELAPSED USER TIME (SEC)      =  0.33000    
       ELAPSED SYSTEM TIME (SEC)    =  0.12000    
       ELAPSED TOTAL CPU TIME (SEC) =  0.45000    
       ELAPSED WALLCLOCK TIME (SEC) =          0

               CONVERGENCE CHECKS FOR EQUILIBRIUM ITERATION     3


 AVERAGE FORCE                       63.0       TIME AVG. FORCE        39.0    
 LARGEST RESIDUAL FORCE             2.187E-03   AT NODE   10000000   DOF  1
 LARGEST INCREMENT OF DISP.         6.283E-02   AT NODE       1056   DOF  3
 LARGEST CORRECTION TO DISP.       -6.344E-06   AT NODE       1056   DOF  3
          THE FORCE     EQUILIBRIUM EQUATIONS HAVE CONVERGED

 AVERAGE MOMENT                      0.00       TIME AVG. MOMENT       40.9    
                                                (FROM FORCE     FIELD)
 LARGEST RESIDUAL MOMENT            -3.64       AT NODE   10000000   DOF  5
 LARGEST INCREMENT OF ROTATION      2.407E-03   AT NODE        440   DOF  4
 LARGEST CORRECTION TO ROTATION    -4.129E-07   AT NODE        440   DOF  4
          ALL ROTATION CORRECTIONS ARE ZERO
          THE MOMENT    IS ZERO EVERYWHERE BUT THE MOMENT    RESIDUAL OR
          THE ROTATION CORRECTION IS NON-ZERO

  NUMBER OF EQUATIONS =       975     NUMBER OF RHS =    1
  NUMBER OF FLOATING PT. OPERATIONS =  5.07E+06

  USING THE DIRECT SOLVER WITH  42 PROCESSORS

     CHECK POINT   START OF SOLVER    

     CHECK POINT  END OF SOLVER       

       ELAPSED USER TIME (SEC)      =  0.26000    
       ELAPSED SYSTEM TIME (SEC)    =  4.00000E-02
       ELAPSED TOTAL CPU TIME (SEC) =  0.30000    
       ELAPSED WALLCLOCK TIME (SEC) =          0

               CONVERGENCE CHECKS FOR EQUILIBRIUM ITERATION     4


 AVERAGE FORCE                       63.0       TIME AVG. FORCE        39.0    
 LARGEST RESIDUAL FORCE             1.048E-04   AT NODE   10000000   DOF  1
 LARGEST INCREMENT OF DISP.         6.283E-02   AT NODE       1056   DOF  3
 LARGEST CORRECTION TO DISP.       -7.384E-07   AT NODE       1056   DOF  3
          THE FORCE     EQUILIBRIUM EQUATIONS HAVE CONVERGED

 AVERAGE MOMENT                      0.00       TIME AVG. MOMENT       40.9    
                                                (FROM FORCE     FIELD)
 LARGEST RESIDUAL MOMENT           -0.503       AT NODE   10000000   DOF  5
 LARGEST INCREMENT OF ROTATION      2.407E-03   AT NODE        440   DOF  4
 LARGEST CORRECTION TO ROTATION    -3.702E-08   AT NODE        440   DOF  4
          ALL ROTATION CORRECTIONS ARE ZERO
          THE MOMENT    IS ZERO EVERYWHERE BUT THE MOMENT    RESIDUAL OR
          THE ROTATION CORRECTION IS NON-ZERO

  NUMBER OF EQUATIONS =       975     NUMBER OF RHS =    1
  NUMBER OF FLOATING PT. OPERATIONS =  5.07E+06

  USING THE DIRECT SOLVER WITH  42 PROCESSORS

     CHECK POINT   START OF SOLVER    

     CHECK POINT  END OF SOLVER       

       ELAPSED USER TIME (SEC)      =  0.23000    
       ELAPSED SYSTEM TIME (SEC)    =  5.00000E-02
       ELAPSED TOTAL CPU TIME (SEC) =  0.28000    
       ELAPSED WALLCLOCK TIME (SEC) =          0

               CONVERGENCE CHECKS FOR EQUILIBRIUM ITERATION     5


 AVERAGE FORCE                       63.0       TIME AVG. FORCE        39.0    
 LARGEST RESIDUAL FORCE             3.170E-05   AT NODE   10000000   DOF  1
 LARGEST INCREMENT OF DISP.         6.283E-02   AT NODE       1056   DOF  3
 LARGEST CORRECTION TO DISP.       -8.939E-08   AT NODE       1056   DOF  3
          THE FORCE     EQUILIBRIUM EQUATIONS HAVE CONVERGED

 AVERAGE MOMENT                      0.00       TIME AVG. MOMENT       40.9    
                                                (FROM FORCE     FIELD)
 LARGEST RESIDUAL MOMENT           -6.997E-02   AT NODE   10000000   DOF  5
 LARGEST INCREMENT OF ROTATION      2.407E-03   AT NODE        440   DOF  4
 LARGEST CORRECTION TO ROTATION    -4.053E-09   AT NODE        440   DOF  5
          ALL ROTATION CORRECTIONS ARE ZERO

 ITERATION SUMMARY FOR THE INCREMENT:   5 TOTAL ITERATIONS, OF WHICH
   0 ARE SEVERE DISCONTINUITY ITERATIONS AND  5 ARE EQUILIBRIUM ITERATIONS.

 TIME INCREMENT COMPLETED  5.000E-02,  FRACTION OF STEP COMPLETED  0.250    
 STEP TIME COMPLETED       0.250    ,  TOTAL TIME COMPLETED        0.250    


  INCREMENT     6 STARTS. ATTEMPT NUMBER  1, TIME INCREMENT  5.000E-02

  NUMBER OF EQUATIONS =       975     NUMBER OF RHS =    1
  NUMBER OF FLOATING PT. OPERATIONS =  5.07E+06

  USING THE DIRECT SOLVER WITH  42 PROCESSORS

     CHECK POINT   START OF SOLVER    

     CHECK POINT  END OF SOLVER       

       ELAPSED USER TIME (SEC)      =  0.27000    
       ELAPSED SYSTEM TIME (SEC)    =  3.00000E-02
       ELAPSED TOTAL CPU TIME (SEC) =  0.30000    
       ELAPSED WALLCLOCK TIME (SEC) =          0

               CONVERGENCE CHECKS FOR EQUILIBRIUM ITERATION     1


 AVERAGE FORCE                       75.3       TIME AVG. FORCE        45.0    
 LARGEST RESIDUAL FORCE              1.20       AT NODE   10000000   DOF  1
 LARGEST INCREMENT OF DISP.         6.164E-02   AT NODE       1056   DOF  3
 LARGEST CORRECTION TO DISP.       -1.188E-03   AT NODE       1056   DOF  3
          FORCE     EQUILIBRIUM NOT ACHIEVED WITHIN TOLERANCE.

 AVERAGE MOMENT                      0.00       TIME AVG. MOMENT       48.3    
                                                (FROM FORCE     FIELD)
 LARGEST RESIDUAL MOMENT            -593.       AT NODE   10000000   DOF  5
 LARGEST INCREMENT OF ROTATION      2.313E-03   AT NODE        440   DOF  4
 LARGEST CORRECTION TO ROTATION    -9.483E-05   AT NODE        440   DOF  4
          THE MOMENT    IS ZERO EVERYWHERE BUT THE MOMENT    RESIDUAL OR
          THE ROTATION CORRECTION IS NON-ZERO

  NUMBER OF EQUATIONS =       975     NUMBER OF RHS =    1
  NUMBER OF FLOATING PT. OPERATIONS =  5.07E+06

  USING THE DIRECT SOLVER WITH  42 PROCESSORS

     CHECK POINT   START OF SOLVER    

     CHECK POINT  END OF SOLVER       

       ELAPSED USER TIME (SEC)      =  0.22000    
       ELAPSED SYSTEM TIME (SEC)    =  8.00000E-02
       ELAPSED TOTAL CPU TIME (SEC) =  0.30000    
       ELAPSED WALLCLOCK TIME (SEC) =          0

               CONVERGENCE CHECKS FOR EQUILIBRIUM ITERATION     2


 AVERAGE FORCE                       75.3       TIME AVG. FORCE        45.0    
 LARGEST RESIDUAL FORCE            -4.688E-02   AT NODE   10000000   DOF  1
 LARGEST INCREMENT OF DISP.         6.151E-02   AT NODE       1056   DOF  3
 LARGEST CORRECTION TO DISP.       -1.278E-04   AT NODE       1056   DOF  3
          THE FORCE     EQUILIBRIUM EQUATIONS HAVE CONVERGED

 AVERAGE MOMENT                      0.00       TIME AVG. MOMENT       48.3    
                                                (FROM FORCE     FIELD)
 LARGEST RESIDUAL MOMENT            -94.2       AT NODE   10000000   DOF  5
 LARGEST INCREMENT OF ROTATION      2.304E-03   AT NODE        440   DOF  4
 LARGEST CORRECTION TO ROTATION    -8.217E-06   AT NODE        440   DOF  4
          THE MOMENT    IS ZERO EVERYWHERE BUT THE MOMENT    RESIDUAL OR
          THE ROTATION CORRECTION IS NON-ZERO

  NUMBER OF EQUATIONS =       975     NUMBER OF RHS =    1
  NUMBER OF FLOATING PT. OPERATIONS =  5.07E+06

  USING THE DIRECT SOLVER WITH  42 PROCESSORS

     CHECK POINT   START OF SOLVER    

     CHECK POINT  END OF SOLVER       

       ELAPSED USER TIME (SEC)      =  0.22000    
       ELAPSED SYSTEM TIME (SEC)    =  8.00000E-02
       ELAPSED TOTAL CPU TIME (SEC) =  0.30000    
       ELAPSED WALLCLOCK TIME (SEC) =          0

               CONVERGENCE CHECKS FOR EQUILIBRIUM ITERATION     3


 AVERAGE FORCE                       75.3       TIME AVG. FORCE        45.0    
 LARGEST RESIDUAL FORCE             6.948E-03   AT NODE   10000000   DOF  1
 LARGEST INCREMENT OF DISP.         6.149E-02   AT NODE       1056   DOF  3
 LARGEST CORRECTION TO DISP.       -1.758E-05   AT NODE       1056   DOF  3
          THE FORCE     EQUILIBRIUM EQUATIONS HAVE CONVERGED

 AVERAGE MOMENT                      0.00       TIME AVG. MOMENT       48.3    
                                                (FROM FORCE     FIELD)
 LARGEST RESIDUAL MOMENT            -15.3       AT NODE   10000000   DOF  5
 LARGEST INCREMENT OF ROTATION      2.303E-03   AT NODE        440   DOF  4
 LARGEST CORRECTION TO ROTATION    -8.744E-07   AT NODE        440   DOF  4
          ALL ROTATION CORRECTIONS ARE ZERO
          THE MOMENT    IS ZERO EVERYWHERE BUT THE MOMENT    RESIDUAL OR
          THE ROTATION CORRECTION IS NON-ZERO

  NUMBER OF EQUATIONS =       975     NUMBER OF RHS =    1
  NUMBER OF FLOATING PT. OPERATIONS =  5.07E+06

  USING THE DIRECT SOLVER WITH  42 PROCESSORS

     CHECK POINT   START OF SOLVER    

     CHECK POINT  END OF SOLVER       

       ELAPSED USER TIME (SEC)      =  0.21000    
       ELAPSED SYSTEM TIME (SEC)    =  7.00000E-02
       ELAPSED TOTAL CPU TIME (SEC) =  0.28000    
       ELAPSED WALLCLOCK TIME (SEC) =          0

               CONVERGENCE CHECKS FOR EQUILIBRIUM ITERATION     4


 AVERAGE FORCE                       75.3       TIME AVG. FORCE        45.0    
 LARGEST RESIDUAL FORCE             8.382E-04   AT NODE   10000000   DOF  1
 LARGEST INCREMENT OF DISP.         6.149E-02   AT NODE       1056   DOF  3
 LARGEST CORRECTION TO DISP.       -2.505E-06   AT NODE       1056   DOF  3
          THE FORCE     EQUILIBRIUM EQUATIONS HAVE CONVERGED

 AVERAGE MOMENT                      0.00       TIME AVG. MOMENT       48.3    
                                                (FROM FORCE     FIELD)
 LARGEST RESIDUAL MOMENT            -2.48       AT NODE   10000000   DOF  5
 LARGEST INCREMENT OF ROTATION      2.303E-03   AT NODE        440   DOF  4
 LARGEST CORRECTION TO ROTATION    -1.135E-07   AT NODE        440   DOF  5
          ALL ROTATION CORRECTIONS ARE ZERO
          THE MOMENT    IS ZERO EVERYWHERE BUT THE MOMENT    RESIDUAL OR
          THE ROTATION CORRECTION IS NON-ZERO

  NUMBER OF EQUATIONS =       975     NUMBER OF RHS =    1
  NUMBER OF FLOATING PT. OPERATIONS =  5.07E+06

  USING THE DIRECT SOLVER WITH  42 PROCESSORS

     CHECK POINT   START OF SOLVER    

     CHECK POINT  END OF SOLVER       

       ELAPSED USER TIME (SEC)      =  0.24000    
       ELAPSED SYSTEM TIME (SEC)    =  5.00000E-02
       ELAPSED TOTAL CPU TIME (SEC) =  0.29000    
       ELAPSED WALLCLOCK TIME (SEC) =          0

               CONVERGENCE CHECKS FOR EQUILIBRIUM ITERATION     5


 AVERAGE FORCE                       75.3       TIME AVG. FORCE        45.0    
 LARGEST RESIDUAL FORCE             1.920E-04   AT NODE   10000000   DOF  1
 LARGEST INCREMENT OF DISP.         6.149E-02   AT NODE       1056   DOF  3
 LARGEST CORRECTION TO DISP.       -3.691E-07   AT NODE       1056   DOF  3
          THE FORCE     EQUILIBRIUM EQUATIONS HAVE CONVERGED

 AVERAGE MOMENT                      0.00       TIME AVG. MOMENT       48.3    
                                                (FROM FORCE     FIELD)
 LARGEST RESIDUAL MOMENT           -0.407       AT NODE   10000000   DOF  5
 LARGEST INCREMENT OF ROTATION      2.303E-03   AT NODE        440   DOF  4
 LARGEST CORRECTION TO ROTATION    -1.906E-08   AT NODE        440   DOF  5
          ALL ROTATION CORRECTIONS ARE ZERO
          THE MOMENT    IS ZERO EVERYWHERE BUT THE MOMENT    RESIDUAL OR
          THE ROTATION CORRECTION IS NON-ZERO

  NUMBER OF EQUATIONS =       975     NUMBER OF RHS =    1
  NUMBER OF FLOATING PT. OPERATIONS =  5.07E+06

  USING THE DIRECT SOLVER WITH  42 PROCESSORS

     CHECK POINT   START OF SOLVER    

     CHECK POINT  END OF SOLVER       

       ELAPSED USER TIME (SEC)      =  0.21000    
       ELAPSED SYSTEM TIME (SEC)    =  7.00000E-02
       ELAPSED TOTAL CPU TIME (SEC) =  0.28000    
       ELAPSED WALLCLOCK TIME (SEC) =          0

               CONVERGENCE CHECKS FOR EQUILIBRIUM ITERATION     6


 AVERAGE FORCE                       75.3       TIME AVG. FORCE        45.0    
 LARGEST RESIDUAL FORCE             3.392E-05   AT NODE   10000000   DOF  1
 LARGEST INCREMENT OF DISP.         6.149E-02   AT NODE       1056   DOF  3
 LARGEST CORRECTION TO DISP.       -5.595E-08   AT NODE       1056   DOF  3
          THE FORCE     EQUILIBRIUM EQUATIONS HAVE CONVERGED

 AVERAGE MOMENT                      0.00       TIME AVG. MOMENT       48.3    
                                                (FROM FORCE     FIELD)
 LARGEST RESIDUAL MOMENT           -6.703E-02   AT NODE   10000000   DOF  5
 LARGEST INCREMENT OF ROTATION      2.303E-03   AT NODE        440   DOF  4
 LARGEST CORRECTION TO ROTATION    -3.190E-09   AT NODE        440   DOF  5
          ALL ROTATION CORRECTIONS ARE ZERO

 ITERATION SUMMARY FOR THE INCREMENT:   6 TOTAL ITERATIONS, OF WHICH
   0 ARE SEVERE DISCONTINUITY ITERATIONS AND  6 ARE EQUILIBRIUM ITERATIONS.

 TIME INCREMENT COMPLETED  5.000E-02,  FRACTION OF STEP COMPLETED  0.300    
 STEP TIME COMPLETED       0.300    ,  TOTAL TIME COMPLETED        0.300    


  INCREMENT     7 STARTS. ATTEMPT NUMBER  1, TIME INCREMENT  5.000E-02

  NUMBER OF EQUATIONS =       975     NUMBER OF RHS =    1
  NUMBER OF FLOATING PT. OPERATIONS =  5.07E+06

  USING THE DIRECT SOLVER WITH  42 PROCESSORS

     CHECK POINT   START OF SOLVER    

     CHECK POINT  END OF SOLVER       

       ELAPSED USER TIME (SEC)      =  0.26000    
       ELAPSED SYSTEM TIME (SEC)    =  6.00000E-02
       ELAPSED TOTAL CPU TIME (SEC) =  0.32000    
       ELAPSED WALLCLOCK TIME (SEC) =          0

               CONVERGENCE CHECKS FOR EQUILIBRIUM ITERATION     1


 AVERAGE FORCE                       88.3       TIME AVG. FORCE        51.2    
 LARGEST RESIDUAL FORCE              1.67       AT NODE   10000000   DOF  1
 LARGEST INCREMENT OF DISP.         5.935E-02   AT NODE       1056   DOF  3
 LARGEST CORRECTION TO DISP.       -2.139E-03   AT NODE       1056   DOF  3
          FORCE     EQUILIBRIUM NOT ACHIEVED WITHIN TOLERANCE.

 AVERAGE MOMENT                      0.00       TIME AVG. MOMENT       55.8    
                                                (FROM FORCE     FIELD)
 LARGEST RESIDUAL MOMENT           -1.686E+03   AT NODE   10000000   DOF  5
 LARGEST INCREMENT OF ROTATION      2.167E-03   AT NODE        440   DOF  4
 LARGEST CORRECTION TO ROTATION    -1.363E-04   AT NODE        440   DOF  4
          THE MOMENT    IS ZERO EVERYWHERE BUT THE MOMENT    RESIDUAL OR
          THE ROTATION CORRECTION IS NON-ZERO

  NUMBER OF EQUATIONS =       975     NUMBER OF RHS =    1
  NUMBER OF FLOATING PT. OPERATIONS =  5.07E+06

  USING THE DIRECT SOLVER WITH  42 PROCESSORS

     CHECK POINT   START OF SOLVER    

     CHECK POINT  END OF SOLVER       

       ELAPSED USER TIME (SEC)      =  0.25000    
       ELAPSED SYSTEM TIME (SEC)    =  4.00000E-02
       ELAPSED TOTAL CPU TIME (SEC) =  0.29000    
       ELAPSED WALLCLOCK TIME (SEC) =          0

               CONVERGENCE CHECKS FOR EQUILIBRIUM ITERATION     2


 AVERAGE FORCE                       88.4       TIME AVG. FORCE        51.2    
 LARGEST RESIDUAL FORCE             7.497E-02   AT NODE   10000000   DOF  2
 LARGEST INCREMENT OF DISP.         5.907E-02   AT NODE       1056   DOF  3
 LARGEST CORRECTION TO DISP.       -2.860E-04   AT NODE       1056   DOF  3
          THE FORCE     EQUILIBRIUM EQUATIONS HAVE CONVERGED

 AVERAGE MOMENT                      0.00       TIME AVG. MOMENT       55.8    
                                                (FROM FORCE     FIELD)
 LARGEST RESIDUAL MOMENT            -312.       AT NODE   10000000   DOF  5
 LARGEST INCREMENT OF ROTATION      2.153E-03   AT NODE        440   DOF  4
 LARGEST CORRECTION TO ROTATION    -1.398E-05   AT NODE        440   DOF  4
          THE MOMENT    IS ZERO EVERYWHERE BUT THE MOMENT    RESIDUAL OR
          THE ROTATION CORRECTION IS NON-ZERO

  NUMBER OF EQUATIONS =       975     NUMBER OF RHS =    1
  NUMBER OF FLOATING PT. OPERATIONS =  5.07E+06

  USING THE DIRECT SOLVER WITH  42 PROCESSORS

     CHECK POINT   START OF SOLVER    

     CHECK POINT  END OF SOLVER       

       ELAPSED USER TIME (SEC)      =  0.22000    
       ELAPSED SYSTEM TIME (SEC)    =  5.00000E-02
       ELAPSED TOTAL CPU TIME (SEC) =  0.27000    
       ELAPSED WALLCLOCK TIME (SEC) =          0

               CONVERGENCE CHECKS FOR EQUILIBRIUM ITERATION     3


 AVERAGE FORCE                       88.4       TIME AVG. FORCE        51.2    
 LARGEST RESIDUAL FORCE             2.441E-02   AT NODE   10000000   DOF  1
 LARGEST INCREMENT OF DISP.         5.902E-02   AT NODE       1056   DOF  3
 LARGEST CORRECTION TO DISP.       -4.731E-05   AT NODE       1056   DOF  3
          THE FORCE     EQUILIBRIUM EQUATIONS HAVE CONVERGED

 AVERAGE MOMENT                      0.00       TIME AVG. MOMENT       55.8    
                                                (FROM FORCE     FIELD)
 LARGEST RESIDUAL MOMENT            -58.4       AT NODE   10000000   DOF  5
 LARGEST INCREMENT OF ROTATION      2.151E-03   AT NODE        440   DOF  4
 LARGEST CORRECTION TO ROTATION    -2.143E-06   AT NODE        440   DOF  5
          ALL ROTATION CORRECTIONS ARE ZERO
          THE MOMENT    IS ZERO EVERYWHERE BUT THE MOMENT    RESIDUAL OR
          THE ROTATION CORRECTION IS NON-ZERO

  NUMBER OF EQUATIONS =       975     NUMBER OF RHS =    1
  NUMBER OF FLOATING PT. OPERATIONS =  5.07E+06

  USING THE DIRECT SOLVER WITH  42 PROCESSORS

     CHECK POINT   START OF SOLVER    

     CHECK POINT  END OF SOLVER       

       ELAPSED USER TIME (SEC)      =  0.18000    
       ELAPSED SYSTEM TIME (SEC)    =  0.11000    
       ELAPSED TOTAL CPU TIME (SEC) =  0.29000    
       ELAPSED WALLCLOCK TIME (SEC) =          0

               CONVERGENCE CHECKS FOR EQUILIBRIUM ITERATION     4


 AVERAGE FORCE                       88.4       TIME AVG. FORCE        51.2    
 LARGEST RESIDUAL FORCE             4.433E-03   AT NODE   10000000   DOF  1
 LARGEST INCREMENT OF DISP.         5.901E-02   AT NODE       1056   DOF  3
 LARGEST CORRECTION TO DISP.       -8.046E-06   AT NODE       1056   DOF  3
          THE FORCE     EQUILIBRIUM EQUATIONS HAVE CONVERGED

 AVERAGE MOMENT                      0.00       TIME AVG. MOMENT       55.8    
                                                (FROM FORCE     FIELD)
 LARGEST RESIDUAL MOMENT            -11.0       AT NODE   10000000   DOF  5
 LARGEST INCREMENT OF ROTATION      2.151E-03   AT NODE        440   DOF  4
 LARGEST CORRECTION TO ROTATION    -4.119E-07   AT NODE        440   DOF  5
          ALL ROTATION CORRECTIONS ARE ZERO
          THE MOMENT    IS ZERO EVERYWHERE BUT THE MOMENT    RESIDUAL OR
          THE ROTATION CORRECTION IS NON-ZERO

  NUMBER OF EQUATIONS =       975     NUMBER OF RHS =    1
  NUMBER OF FLOATING PT. OPERATIONS =  5.07E+06

  USING THE DIRECT SOLVER WITH  42 PROCESSORS

     CHECK POINT   START OF SOLVER    

     CHECK POINT  END OF SOLVER       

       ELAPSED USER TIME (SEC)      =  0.21000    
       ELAPSED SYSTEM TIME (SEC)    =  8.00000E-02
       ELAPSED TOTAL CPU TIME (SEC) =  0.29000    
       ELAPSED WALLCLOCK TIME (SEC) =          0

               CONVERGENCE CHECKS FOR EQUILIBRIUM ITERATION     5


 AVERAGE FORCE                       88.4       TIME AVG. FORCE        51.2    
 LARGEST RESIDUAL FORCE             9.963E-04   AT NODE   10000000   DOF  1
 LARGEST INCREMENT OF DISP.         5.901E-02   AT NODE       1056   DOF  3
 LARGEST CORRECTION TO DISP.       -1.403E-06   AT NODE       1056   DOF  3
          THE FORCE     EQUILIBRIUM EQUATIONS HAVE CONVERGED

 AVERAGE MOMENT                      0.00       TIME AVG. MOMENT       55.8    
                                                (FROM FORCE     FIELD)
 LARGEST RESIDUAL MOMENT            -2.06       AT NODE   10000000   DOF  5
 LARGEST INCREMENT OF ROTATION      2.151E-03   AT NODE        440   DOF  4
 LARGEST CORRECTION TO ROTATION    -7.892E-08   AT NODE        440   DOF  5
          ALL ROTATION CORRECTIONS ARE ZERO
          THE MOMENT    IS ZERO EVERYWHERE BUT THE MOMENT    RESIDUAL OR
          THE ROTATION CORRECTION IS NON-ZERO

  NUMBER OF EQUATIONS =       975     NUMBER OF RHS =    1
  NUMBER OF FLOATING PT. OPERATIONS =  5.07E+06

  USING THE DIRECT SOLVER WITH  42 PROCESSORS

     CHECK POINT   START OF SOLVER    

     CHECK POINT  END OF SOLVER       

       ELAPSED USER TIME (SEC)      =  0.21000    
       ELAPSED SYSTEM TIME (SEC)    =  6.00000E-02
       ELAPSED TOTAL CPU TIME (SEC) =  0.27000    
       ELAPSED WALLCLOCK TIME (SEC) =          0

               CONVERGENCE CHECKS FOR EQUILIBRIUM ITERATION     6


 AVERAGE FORCE                       88.4       TIME AVG. FORCE        51.2    
 LARGEST RESIDUAL FORCE             2.001E-04   AT NODE   10000000   DOF  1
 LARGEST INCREMENT OF DISP.         5.901E-02   AT NODE       1056   DOF  3
 LARGEST CORRECTION TO DISP.       -2.497E-07   AT NODE       1056   DOF  3
          THE FORCE     EQUILIBRIUM EQUATIONS HAVE CONVERGED

 AVERAGE MOMENT                      0.00       TIME AVG. MOMENT       55.8    
                                                (FROM FORCE     FIELD)
 LARGEST RESIDUAL MOMENT           -0.390       AT NODE   10000000   DOF  5
 LARGEST INCREMENT OF ROTATION      2.151E-03   AT NODE        440   DOF  4
 LARGEST CORRECTION TO ROTATION    -1.508E-08   AT NODE        440   DOF  5
          ALL ROTATION CORRECTIONS ARE ZERO
          THE MOMENT    IS ZERO EVERYWHERE BUT THE MOMENT    RESIDUAL OR
          THE ROTATION CORRECTION IS NON-ZERO

  NUMBER OF EQUATIONS =       975     NUMBER OF RHS =    1
  NUMBER OF FLOATING PT. OPERATIONS =  5.07E+06

  USING THE DIRECT SOLVER WITH  42 PROCESSORS

     CHECK POINT   START OF SOLVER    

     CHECK POINT  END OF SOLVER       

       ELAPSED USER TIME (SEC)      =  0.25000    
       ELAPSED SYSTEM TIME (SEC)    =  5.00000E-02
       ELAPSED TOTAL CPU TIME (SEC) =  0.30000    
       ELAPSED WALLCLOCK TIME (SEC) =          0

               CONVERGENCE CHECKS FOR EQUILIBRIUM ITERATION     7


 AVERAGE FORCE                       88.4       TIME AVG. FORCE        51.2    
 LARGEST RESIDUAL FORCE             4.002E-05   AT NODE   10000000   DOF  1
 LARGEST INCREMENT OF DISP.         5.901E-02   AT NODE       1056   DOF  3
 LARGEST CORRECTION TO DISP.        4.761E-08   AT NODE       1040   DOF  3
          THE FORCE     EQUILIBRIUM EQUATIONS HAVE CONVERGED

 AVERAGE MOMENT                      0.00       TIME AVG. MOMENT       55.8    
                                                (FROM FORCE     FIELD)
 LARGEST RESIDUAL MOMENT           -7.374E-02   AT NODE   10000000   DOF  5
 LARGEST INCREMENT OF ROTATION      2.151E-03   AT NODE        440   DOF  4
 LARGEST CORRECTION TO ROTATION    -2.878E-09   AT NODE        440   DOF  5
          ALL ROTATION CORRECTIONS ARE ZERO

 ITERATION SUMMARY FOR THE INCREMENT:   7 TOTAL ITERATIONS, OF WHICH
   0 ARE SEVERE DISCONTINUITY ITERATIONS AND  7 ARE EQUILIBRIUM ITERATIONS.

 TIME INCREMENT COMPLETED  5.000E-02,  FRACTION OF STEP COMPLETED  0.350    
 STEP TIME COMPLETED       0.350    ,  TOTAL TIME COMPLETED        0.350    


  INCREMENT     8 STARTS. ATTEMPT NUMBER  1, TIME INCREMENT  5.000E-02

  NUMBER OF EQUATIONS =       975     NUMBER OF RHS =    1
  NUMBER OF FLOATING PT. OPERATIONS =  5.07E+06

  USING THE DIRECT SOLVER WITH  42 PROCESSORS

     CHECK POINT   START OF SOLVER    

     CHECK POINT  END OF SOLVER       

       ELAPSED USER TIME (SEC)      =  0.26000    
       ELAPSED SYSTEM TIME (SEC)    =  2.00000E-02
       ELAPSED TOTAL CPU TIME (SEC) =  0.28000    
       ELAPSED WALLCLOCK TIME (SEC) =          0

               CONVERGENCE CHECKS FOR EQUILIBRIUM ITERATION     1


 AVERAGE FORCE                       102.       TIME AVG. FORCE        57.5    
 LARGEST RESIDUAL FORCE              1.58       AT NODE   10000000   DOF  2
 LARGEST INCREMENT OF DISP.         5.762E-02   AT NODE       1056   DOF  3
 LARGEST CORRECTION TO DISP.        1.498E-03   AT NODE        762   DOF  2
          FORCE     EQUILIBRIUM NOT ACHIEVED WITHIN TOLERANCE.

 AVERAGE MOMENT                      0.00       TIME AVG. MOMENT       63.5    
                                                (FROM FORCE     FIELD)
 LARGEST RESIDUAL MOMENT           -1.490E+03   AT NODE   10000000   DOF  5
 LARGEST INCREMENT OF ROTATION      2.071E-03   AT NODE        440   DOF  4
 LARGEST CORRECTION TO ROTATION    -7.987E-05   AT NODE        440   DOF  4
          THE MOMENT    IS ZERO EVERYWHERE BUT THE MOMENT    RESIDUAL OR
          THE ROTATION CORRECTION IS NON-ZERO

  NUMBER OF EQUATIONS =       975     NUMBER OF RHS =    1
  NUMBER OF FLOATING PT. OPERATIONS =  5.07E+06

  USING THE DIRECT SOLVER WITH  42 PROCESSORS

     CHECK POINT   START OF SOLVER    

     CHECK POINT  END OF SOLVER       

       ELAPSED USER TIME (SEC)      =  0.21000    
       ELAPSED SYSTEM TIME (SEC)    =  9.00000E-02
       ELAPSED TOTAL CPU TIME (SEC) =  0.30000    
       ELAPSED WALLCLOCK TIME (SEC) =          0

               CONVERGENCE CHECKS FOR EQUILIBRIUM ITERATION     2


 AVERAGE FORCE                       102.       TIME AVG. FORCE        57.5    
 LARGEST RESIDUAL FORCE             1.313E-02   AT NODE   10000000   DOF  2
 LARGEST INCREMENT OF DISP.         5.740E-02   AT NODE       1056   DOF  3
 LARGEST CORRECTION TO DISP.       -2.207E-04   AT NODE       1056   DOF  3
          THE FORCE     EQUILIBRIUM EQUATIONS HAVE CONVERGED

 AVERAGE MOMENT                      0.00       TIME AVG. MOMENT       63.5    
                                                (FROM FORCE     FIELD)
 LARGEST RESIDUAL MOMENT            -312.       AT NODE   10000000   DOF  5
 LARGEST INCREMENT OF ROTATION      2.062E-03   AT NODE        440   DOF  4
 LARGEST CORRECTION TO ROTATION    -9.541E-06   AT NODE        440   DOF  4
          THE MOMENT    IS ZERO EVERYWHERE BUT THE MOMENT    RESIDUAL OR
          THE ROTATION CORRECTION IS NON-ZERO

  NUMBER OF EQUATIONS =       975     NUMBER OF RHS =    1
  NUMBER OF FLOATING PT. OPERATIONS =  5.07E+06

  USING THE DIRECT SOLVER WITH  42 PROCESSORS

     CHECK POINT   START OF SOLVER    

     CHECK POINT  END OF SOLVER       

       ELAPSED USER TIME (SEC)      =  0.23000    
       ELAPSED SYSTEM TIME (SEC)    =  6.00000E-02
       ELAPSED TOTAL CPU TIME (SEC) =  0.29000    
       ELAPSED WALLCLOCK TIME (SEC) =          0

               CONVERGENCE CHECKS FOR EQUILIBRIUM ITERATION     3


 AVERAGE FORCE                       102.       TIME AVG. FORCE        57.5    
 LARGEST RESIDUAL FORCE             2.929E-02   AT NODE   10000000   DOF  1
 LARGEST INCREMENT OF DISP.         5.736E-02   AT NODE       1056   DOF  3
 LARGEST CORRECTION TO DISP.       -4.231E-05   AT NODE       1056   DOF  3
          THE FORCE     EQUILIBRIUM EQUATIONS HAVE CONVERGED

 AVERAGE MOMENT                      0.00       TIME AVG. MOMENT       63.5    
                                                (FROM FORCE     FIELD)
 LARGEST RESIDUAL MOMENT            -66.1       AT NODE   10000000   DOF  5
 LARGEST INCREMENT OF ROTATION      2.060E-03   AT NODE        440   DOF  4
 LARGEST CORRECTION TO ROTATION    -1.999E-06   AT NODE        440   DOF  5
          ALL ROTATION CORRECTIONS ARE ZERO
          THE MOMENT    IS ZERO EVERYWHERE BUT THE MOMENT    RESIDUAL OR
          THE ROTATION CORRECTION IS NON-ZERO

  NUMBER OF EQUATIONS =       975     NUMBER OF RHS =    1
  NUMBER OF FLOATING PT. OPERATIONS =  5.07E+06

  USING THE DIRECT SOLVER WITH  42 PROCESSORS

     CHECK POINT   START OF SOLVER    

     CHECK POINT  END OF SOLVER       

       ELAPSED USER TIME (SEC)      =  0.24000    
       ELAPSED SYSTEM TIME (SEC)    =  6.00000E-02
       ELAPSED TOTAL CPU TIME (SEC) =  0.30000    
       ELAPSED WALLCLOCK TIME (SEC) =          0

               CONVERGENCE CHECKS FOR EQUILIBRIUM ITERATION     4


 AVERAGE FORCE                       102.       TIME AVG. FORCE        57.5    
 LARGEST RESIDUAL FORCE             5.224E-03   AT NODE   10000000   DOF  1
 LARGEST INCREMENT OF DISP.         5.735E-02   AT NODE       1056   DOF  3
 LARGEST CORRECTION TO DISP.       -8.277E-06   AT NODE       1056   DOF  3
          THE FORCE     EQUILIBRIUM EQUATIONS HAVE CONVERGED

 AVERAGE MOMENT                      0.00       TIME AVG. MOMENT       63.5    
                                                (FROM FORCE     FIELD)
 LARGEST RESIDUAL MOMENT            -14.0       AT NODE   10000000   DOF  5
 LARGEST INCREMENT OF ROTATION      2.060E-03   AT NODE        440   DOF  4
 LARGEST CORRECTION TO ROTATION    -4.320E-07   AT NODE        440   DOF  5
          ALL ROTATION CORRECTIONS ARE ZERO
          THE MOMENT    IS ZERO EVERYWHERE BUT THE MOMENT    RESIDUAL OR
          THE ROTATION CORRECTION IS NON-ZERO

  NUMBER OF EQUATIONS =       975     NUMBER OF RHS =    1
  NUMBER OF FLOATING PT. OPERATIONS =  5.07E+06

  USING THE DIRECT SOLVER WITH  42 PROCESSORS

     CHECK POINT   START OF SOLVER    

     CHECK POINT  END OF SOLVER       

       ELAPSED USER TIME (SEC)      =  0.22000    
       ELAPSED SYSTEM TIME (SEC)    =  7.00000E-02
       ELAPSED TOTAL CPU TIME (SEC) =  0.29000    
       ELAPSED WALLCLOCK TIME (SEC) =          1

               CONVERGENCE CHECKS FOR EQUILIBRIUM ITERATION     5


 AVERAGE FORCE                       102.       TIME AVG. FORCE        57.5    
 LARGEST RESIDUAL FORCE             1.379E-03   AT NODE   10000000   DOF  1
 LARGEST INCREMENT OF DISP.         5.735E-02   AT NODE       1056   DOF  3
 LARGEST CORRECTION TO DISP.       -1.651E-06   AT NODE       1056   DOF  3
          THE FORCE     EQUILIBRIUM EQUATIONS HAVE CONVERGED

 AVERAGE MOMENT                      0.00       TIME AVG. MOMENT       63.5    
                                                (FROM FORCE     FIELD)
 LARGEST RESIDUAL MOMENT            -2.98       AT NODE   10000000   DOF  5
 LARGEST INCREMENT OF ROTATION      2.060E-03   AT NODE        440   DOF  4
 LARGEST CORRECTION TO ROTATION    -9.310E-08   AT NODE        440   DOF  5
          ALL ROTATION CORRECTIONS ARE ZERO
          THE MOMENT    IS ZERO EVERYWHERE BUT THE MOMENT    RESIDUAL OR
          THE ROTATION CORRECTION IS NON-ZERO

  NUMBER OF EQUATIONS =       975     NUMBER OF RHS =    1
  NUMBER OF FLOATING PT. OPERATIONS =  5.07E+06

  USING THE DIRECT SOLVER WITH  42 PROCESSORS

     CHECK POINT   START OF SOLVER    

     CHECK POINT  END OF SOLVER       

       ELAPSED USER TIME (SEC)      =  0.25000    
       ELAPSED SYSTEM TIME (SEC)    =  5.00000E-02
       ELAPSED TOTAL CPU TIME (SEC) =  0.30000    
       ELAPSED WALLCLOCK TIME (SEC) =          0

               CONVERGENCE CHECKS FOR EQUILIBRIUM ITERATION     6


 AVERAGE FORCE                       102.       TIME AVG. FORCE        57.5    
 LARGEST RESIDUAL FORCE             3.046E-04   AT NODE   10000000   DOF  1
 LARGEST INCREMENT OF DISP.         5.735E-02   AT NODE       1056   DOF  3
 LARGEST CORRECTION TO DISP.       -3.346E-07   AT NODE       1056   DOF  3
          THE FORCE     EQUILIBRIUM EQUATIONS HAVE CONVERGED

 AVERAGE MOMENT                      0.00       TIME AVG. MOMENT       63.5    
                                                (FROM FORCE     FIELD)
 LARGEST RESIDUAL MOMENT           -0.633       AT NODE   10000000   DOF  5
 LARGEST INCREMENT OF ROTATION      2.060E-03   AT NODE        440   DOF  4
 LARGEST CORRECTION TO ROTATION    -2.001E-08   AT NODE        440   DOF  5
          ALL ROTATION CORRECTIONS ARE ZERO
          THE MOMENT    IS ZERO EVERYWHERE BUT THE MOMENT    RESIDUAL OR
          THE ROTATION CORRECTION IS NON-ZERO

  NUMBER OF EQUATIONS =       975     NUMBER OF RHS =    1
  NUMBER OF FLOATING PT. OPERATIONS =  5.07E+06

  USING THE DIRECT SOLVER WITH  42 PROCESSORS

     CHECK POINT   START OF SOLVER    

     CHECK POINT  END OF SOLVER       

       ELAPSED USER TIME (SEC)      =  0.22000    
       ELAPSED SYSTEM TIME (SEC)    =  7.00000E-02
       ELAPSED TOTAL CPU TIME (SEC) =  0.29000    
       ELAPSED WALLCLOCK TIME (SEC) =          0

               CONVERGENCE CHECKS FOR EQUILIBRIUM ITERATION     7


 AVERAGE FORCE                       102.       TIME AVG. FORCE        57.5    
 LARGEST RESIDUAL FORCE             6.881E-05   AT NODE   10000000   DOF  1
 LARGEST INCREMENT OF DISP.         5.735E-02   AT NODE       1056   DOF  3
 LARGEST CORRECTION TO DISP.        7.012E-08   AT NODE        998   DOF  3
          THE FORCE     EQUILIBRIUM EQUATIONS HAVE CONVERGED

 AVERAGE MOMENT                      0.00       TIME AVG. MOMENT       63.5    
                                                (FROM FORCE     FIELD)
 LARGEST RESIDUAL MOMENT           -0.135       AT NODE   10000000   DOF  5
 LARGEST INCREMENT OF ROTATION      2.060E-03   AT NODE        440   DOF  4
 LARGEST CORRECTION TO ROTATION    -4.293E-09   AT NODE        440   DOF  5
          ALL ROTATION CORRECTIONS ARE ZERO

 ITERATION SUMMARY FOR THE INCREMENT:   7 TOTAL ITERATIONS, OF WHICH
   0 ARE SEVERE DISCONTINUITY ITERATIONS AND  7 ARE EQUILIBRIUM ITERATIONS.

 TIME INCREMENT COMPLETED  5.000E-02,  FRACTION OF STEP COMPLETED  0.400    
 STEP TIME COMPLETED       0.400    ,  TOTAL TIME COMPLETED        0.400    


  INCREMENT     9 STARTS. ATTEMPT NUMBER  1, TIME INCREMENT  5.000E-02

  NUMBER OF EQUATIONS =       975     NUMBER OF RHS =    1
  NUMBER OF FLOATING PT. OPERATIONS =  5.07E+06

  USING THE DIRECT SOLVER WITH  42 PROCESSORS

     CHECK POINT   START OF SOLVER    

     CHECK POINT  END OF SOLVER       

       ELAPSED USER TIME (SEC)      =  0.25000    
       ELAPSED SYSTEM TIME (SEC)    =  7.00000E-02
       ELAPSED TOTAL CPU TIME (SEC) =  0.32000    
       ELAPSED WALLCLOCK TIME (SEC) =          0

               CONVERGENCE CHECKS FOR EQUILIBRIUM ITERATION     1


 AVERAGE FORCE                       116.       TIME AVG. FORCE        64.0    
 LARGEST RESIDUAL FORCE              2.62       AT NODE   10000000   DOF  2
 LARGEST INCREMENT OF DISP.         5.641E-02   AT NODE       1056   DOF  3
 LARGEST CORRECTION TO DISP.        1.920E-03   AT NODE        762   DOF  2
          FORCE     EQUILIBRIUM NOT ACHIEVED WITHIN TOLERANCE.

 AVERAGE MOMENT                      0.00       TIME AVG. MOMENT       71.4    
                                                (FROM FORCE     FIELD)
 LARGEST RESIDUAL MOMENT            -785.       AT NODE   10000000   DOF  5
 LARGEST INCREMENT OF ROTATION      1.973E-03   AT NODE        440   DOF  4
 LARGEST CORRECTION TO ROTATION    -8.712E-05   AT NODE        440   DOF  4
          THE MOMENT    IS ZERO EVERYWHERE BUT THE MOMENT    RESIDUAL OR
          THE ROTATION CORRECTION IS NON-ZERO

  NUMBER OF EQUATIONS =       975     NUMBER OF RHS =    1
  NUMBER OF FLOATING PT. OPERATIONS =  5.07E+06

  USING THE DIRECT SOLVER WITH  42 PROCESSORS

     CHECK POINT   START OF SOLVER    

     CHECK POINT  END OF SOLVER       

       ELAPSED USER TIME (SEC)      =  0.19000    
       ELAPSED SYSTEM TIME (SEC)    =  0.10000    
       ELAPSED TOTAL CPU TIME (SEC) =  0.29000    
       ELAPSED WALLCLOCK TIME (SEC) =          0

               CONVERGENCE CHECKS FOR EQUILIBRIUM ITERATION     2


 AVERAGE FORCE                       116.       TIME AVG. FORCE        64.0    
 LARGEST RESIDUAL FORCE            -0.150       AT NODE   10000000   DOF  1
 LARGEST INCREMENT OF DISP.         5.626E-02   AT NODE       1056   DOF  3
 LARGEST CORRECTION TO DISP.       -1.585E-04   AT NODE       1056   DOF  3
          THE FORCE     EQUILIBRIUM EQUATIONS HAVE CONVERGED

 AVERAGE MOMENT                      0.00       TIME AVG. MOMENT       71.4    
                                                (FROM FORCE     FIELD)
 LARGEST RESIDUAL MOMENT            -180.       AT NODE   10000000   DOF  5
 LARGEST INCREMENT OF ROTATION      1.960E-03   AT NODE        440   DOF  4
 LARGEST CORRECTION TO ROTATION    -1.263E-05   AT NODE        440   DOF  4
          THE MOMENT    IS ZERO EVERYWHERE BUT THE MOMENT    RESIDUAL OR
          THE ROTATION CORRECTION IS NON-ZERO

  NUMBER OF EQUATIONS =       975     NUMBER OF RHS =    1
  NUMBER OF FLOATING PT. OPERATIONS =  5.07E+06

  USING THE DIRECT SOLVER WITH  42 PROCESSORS

     CHECK POINT   START OF SOLVER    

     CHECK POINT  END OF SOLVER       

       ELAPSED USER TIME (SEC)      =  0.22000    
       ELAPSED SYSTEM TIME (SEC)    =  6.00000E-02
       ELAPSED TOTAL CPU TIME (SEC) =  0.28000    
       ELAPSED WALLCLOCK TIME (SEC) =          0

               CONVERGENCE CHECKS FOR EQUILIBRIUM ITERATION     3


 AVERAGE FORCE                       116.       TIME AVG. FORCE        64.0    
 LARGEST RESIDUAL FORCE             4.202E-02   AT NODE   10000000   DOF  2
 LARGEST INCREMENT OF DISP.         5.622E-02   AT NODE       1056   DOF  3
 LARGEST CORRECTION TO DISP.       -3.212E-05   AT NODE       1056   DOF  3
          THE FORCE     EQUILIBRIUM EQUATIONS HAVE CONVERGED

 AVERAGE MOMENT                      0.00       TIME AVG. MOMENT       71.4    
                                                (FROM FORCE     FIELD)
 LARGEST RESIDUAL MOMENT            -42.5       AT NODE   10000000   DOF  5
 LARGEST INCREMENT OF ROTATION      1.958E-03   AT NODE        440   DOF  4
 LARGEST CORRECTION TO ROTATION    -2.179E-06   AT NODE        440   DOF  4
          THE MOMENT    IS ZERO EVERYWHERE BUT THE MOMENT    RESIDUAL OR
          THE ROTATION CORRECTION IS NON-ZERO

  NUMBER OF EQUATIONS =       975     NUMBER OF RHS =    1
  NUMBER OF FLOATING PT. OPERATIONS =  5.07E+06

  USING THE DIRECT SOLVER WITH  42 PROCESSORS

     CHECK POINT   START OF SOLVER    

     CHECK POINT  END OF SOLVER       

       ELAPSED USER TIME (SEC)      =  0.26000    
       ELAPSED SYSTEM TIME (SEC)    =  4.00000E-02
       ELAPSED TOTAL CPU TIME (SEC) =  0.30000    
       ELAPSED WALLCLOCK TIME (SEC) =          0

               CONVERGENCE CHECKS FOR EQUILIBRIUM ITERATION     4


 AVERAGE FORCE                       116.       TIME AVG. FORCE        64.0    
 LARGEST RESIDUAL FORCE             3.296E-03   AT NODE   10000000   DOF  2
 LARGEST INCREMENT OF DISP.         5.622E-02   AT NODE       1056   DOF  3
 LARGEST CORRECTION TO DISP.       -6.624E-06   AT NODE       1056   DOF  3
          THE FORCE     EQUILIBRIUM EQUATIONS HAVE CONVERGED

 AVERAGE MOMENT                      0.00       TIME AVG. MOMENT       71.4    
                                                (FROM FORCE     FIELD)
 LARGEST RESIDUAL MOMENT            -9.98       AT NODE   10000000   DOF  5
 LARGEST INCREMENT OF ROTATION      1.958E-03   AT NODE        440   DOF  4
 LARGEST CORRECTION TO ROTATION    -3.734E-07   AT NODE        440   DOF  4
          ALL ROTATION CORRECTIONS ARE ZERO
          THE MOMENT    IS ZERO EVERYWHERE BUT THE MOMENT    RESIDUAL OR
          THE ROTATION CORRECTION IS NON-ZERO

  NUMBER OF EQUATIONS =       975     NUMBER OF RHS =    1
  NUMBER OF FLOATING PT. OPERATIONS =  5.07E+06

  USING THE DIRECT SOLVER WITH  42 PROCESSORS

     CHECK POINT   START OF SOLVER    

     CHECK POINT  END OF SOLVER       

       ELAPSED USER TIME (SEC)      =  0.24000    
       ELAPSED SYSTEM TIME (SEC)    =  6.00000E-02
       ELAPSED TOTAL CPU TIME (SEC) =  0.30000    
       ELAPSED WALLCLOCK TIME (SEC) =          0

               CONVERGENCE CHECKS FOR EQUILIBRIUM ITERATION     5


 AVERAGE FORCE                       116.       TIME AVG. FORCE        64.0    
 LARGEST RESIDUAL FORCE             1.172E-03   AT NODE   10000000   DOF  2
 LARGEST INCREMENT OF DISP.         5.622E-02   AT NODE       1056   DOF  3
 LARGEST CORRECTION TO DISP.       -1.401E-06   AT NODE       1056   DOF  3
          THE FORCE     EQUILIBRIUM EQUATIONS HAVE CONVERGED

 AVERAGE MOMENT                      0.00       TIME AVG. MOMENT       71.4    
                                                (FROM FORCE     FIELD)
 LARGEST RESIDUAL MOMENT            -2.36       AT NODE   10000000   DOF  5
 LARGEST INCREMENT OF ROTATION      1.958E-03   AT NODE        440   DOF  4
 LARGEST CORRECTION TO ROTATION    -6.344E-08   AT NODE        440   DOF  4
          ALL ROTATION CORRECTIONS ARE ZERO
          THE MOMENT    IS ZERO EVERYWHERE BUT THE MOMENT    RESIDUAL OR
          THE ROTATION CORRECTION IS NON-ZERO

  NUMBER OF EQUATIONS =       975     NUMBER OF RHS =    1
  NUMBER OF FLOATING PT. OPERATIONS =  5.07E+06

  USING THE DIRECT SOLVER WITH  42 PROCESSORS

     CHECK POINT   START OF SOLVER    

     CHECK POINT  END OF SOLVER       

       ELAPSED USER TIME (SEC)      =  0.22000    
       ELAPSED SYSTEM TIME (SEC)    =  9.00000E-02
       ELAPSED TOTAL CPU TIME (SEC) =  0.31000    
       ELAPSED WALLCLOCK TIME (SEC) =          0

               CONVERGENCE CHECKS FOR EQUILIBRIUM ITERATION     6


 AVERAGE FORCE                       116.       TIME AVG. FORCE        64.0    
 LARGEST RESIDUAL FORCE             2.007E-04   AT NODE   10000000   DOF  2
 LARGEST INCREMENT OF DISP.         5.622E-02   AT NODE       1056   DOF  3
 LARGEST CORRECTION TO DISP.       -3.020E-07   AT NODE       1056   DOF  3
          THE FORCE     EQUILIBRIUM EQUATIONS HAVE CONVERGED

 AVERAGE MOMENT                      0.00       TIME AVG. MOMENT       71.4    
                                                (FROM FORCE     FIELD)
 LARGEST RESIDUAL MOMENT           -0.556       AT NODE   10000000   DOF  5
 LARGEST INCREMENT OF ROTATION      1.958E-03   AT NODE        440   DOF  4
 LARGEST CORRECTION TO ROTATION    -1.378E-08   AT NODE        440   DOF  5
          ALL ROTATION CORRECTIONS ARE ZERO
          THE MOMENT    IS ZERO EVERYWHERE BUT THE MOMENT    RESIDUAL OR
          THE ROTATION CORRECTION IS NON-ZERO

  NUMBER OF EQUATIONS =       975     NUMBER OF RHS =    1
  NUMBER OF FLOATING PT. OPERATIONS =  5.07E+06

  USING THE DIRECT SOLVER WITH  42 PROCESSORS

     CHECK POINT   START OF SOLVER    

     CHECK POINT  END OF SOLVER       

       ELAPSED USER TIME (SEC)      =  0.29000    
       ELAPSED SYSTEM TIME (SEC)    =  6.00000E-02
       ELAPSED TOTAL CPU TIME (SEC) =  0.35000    
       ELAPSED WALLCLOCK TIME (SEC) =          0

               CONVERGENCE CHECKS FOR EQUILIBRIUM ITERATION     7


 AVERAGE FORCE                       116.       TIME AVG. FORCE        64.0    
 LARGEST RESIDUAL FORCE             4.774E-05   AT NODE   10000000   DOF  2
 LARGEST INCREMENT OF DISP.         5.622E-02   AT NODE       1056   DOF  3
 LARGEST CORRECTION TO DISP.       -6.641E-08   AT NODE       1056   DOF  3
          THE FORCE     EQUILIBRIUM EQUATIONS HAVE CONVERGED

[...]
          THE ROTATION CORRECTION IS NON-ZERO

  NUMBER OF EQUATIONS =       975     NUMBER OF RHS =    1
  NUMBER OF FLOATING PT. OPERATIONS =  5.07E+06

  USING THE DIRECT SOLVER WITH  42 PROCESSORS

     CHECK POINT   START OF SOLVER    

     CHECK POINT  END OF SOLVER       

       ELAPSED USER TIME (SEC)      =  0.23000    
       ELAPSED SYSTEM TIME (SEC)    =  7.00000E-02
       ELAPSED TOTAL CPU TIME (SEC) =  0.30000    
       ELAPSED WALLCLOCK TIME (SEC) =          0

               CONVERGENCE CHECKS FOR EQUILIBRIUM ITERATION     4


 AVERAGE FORCE                       178.       TIME AVG. FORCE        152.    
 LARGEST RESIDUAL FORCE            -6.573E-02   AT NODE   10000000   DOF  2
 LARGEST INCREMENT OF DISP.         3.042E-03   AT NODE        762   DOF  2
 LARGEST CORRECTION TO DISP.        5.979E-05   AT NODE        762   DOF  2
          DISP.    CORRECTION TOO LARGE COMPARED TO DISP.    INCREMENT

 AVERAGE MOMENT                      0.00       TIME AVG. MOMENT       188.    
                                                (FROM FORCE     FIELD)
 LARGEST RESIDUAL MOMENT             61.7       AT NODE   10000000   DOF  5
 LARGEST INCREMENT OF ROTATION     -1.284E-04   AT NODE        440   DOF  6
 LARGEST CORRECTION TO ROTATION    -2.531E-06   AT NODE        440   DOF  6
          THE MOMENT    IS ZERO EVERYWHERE BUT THE MOMENT    RESIDUAL OR
          THE ROTATION CORRECTION IS NON-ZERO

  NUMBER OF EQUATIONS =       975     NUMBER OF RHS =    1
  NUMBER OF FLOATING PT. OPERATIONS =  5.07E+06

  USING THE DIRECT SOLVER WITH  42 PROCESSORS

     CHECK POINT   START OF SOLVER    

     CHECK POINT  END OF SOLVER       

       ELAPSED USER TIME (SEC)      =  0.20000    
       ELAPSED SYSTEM TIME (SEC)    =  6.00000E-02
       ELAPSED TOTAL CPU TIME (SEC) =  0.26000    
       ELAPSED WALLCLOCK TIME (SEC) =          0

               CONVERGENCE CHECKS FOR EQUILIBRIUM ITERATION     5


 AVERAGE FORCE                       178.       TIME AVG. FORCE        152.    
 LARGEST RESIDUAL FORCE            -6.713E-02   AT NODE   10000000   DOF  2
 LARGEST INCREMENT OF DISP.         3.118E-03   AT NODE        762   DOF  2
 LARGEST CORRECTION TO DISP.        7.561E-05   AT NODE        762   DOF  2
          DISP.    CORRECTION TOO LARGE COMPARED TO DISP.    INCREMENT

 AVERAGE MOMENT                      0.00       TIME AVG. MOMENT       188.    
                                                (FROM FORCE     FIELD)
 LARGEST RESIDUAL MOMENT             54.4       AT NODE   10000000   DOF  5
 LARGEST INCREMENT OF ROTATION     -1.316E-04   AT NODE        440   DOF  6
 LARGEST CORRECTION TO ROTATION    -3.203E-06   AT NODE        440   DOF  6
          THE MOMENT    IS ZERO EVERYWHERE BUT THE MOMENT    RESIDUAL OR
          THE ROTATION CORRECTION IS NON-ZERO

  NUMBER OF EQUATIONS =       975     NUMBER OF RHS =    1
  NUMBER OF FLOATING PT. OPERATIONS =  5.07E+06

  USING THE DIRECT SOLVER WITH  42 PROCESSORS

     CHECK POINT   START OF SOLVER    

     CHECK POINT  END OF SOLVER       

       ELAPSED USER TIME (SEC)      =  0.36000    
       ELAPSED SYSTEM TIME (SEC)    =  8.00000E-02
       ELAPSED TOTAL CPU TIME (SEC) =  0.44000    
       ELAPSED WALLCLOCK TIME (SEC) =          0

               CONVERGENCE CHECKS FOR EQUILIBRIUM ITERATION     6


 AVERAGE FORCE                       178.       TIME AVG. FORCE        152.    
 LARGEST RESIDUAL FORCE            -4.859E-02   AT NODE   10000000   DOF  2
 LARGEST INCREMENT OF DISP.         3.166E-03   AT NODE        762   DOF  2
 LARGEST CORRECTION TO DISP.        4.880E-05   AT NODE        762   DOF  2
          DISP.    CORRECTION TOO LARGE COMPARED TO DISP.    INCREMENT

 AVERAGE MOMENT                      0.00       TIME AVG. MOMENT       188.    
                                                (FROM FORCE     FIELD)
 LARGEST RESIDUAL MOMENT             40.0       AT NODE   10000000   DOF  5
 LARGEST INCREMENT OF ROTATION     -1.337E-04   AT NODE        440   DOF  6
 LARGEST CORRECTION TO ROTATION    -2.067E-06   AT NODE        440   DOF  6
          THE MOMENT    IS ZERO EVERYWHERE BUT THE MOMENT    RESIDUAL OR
          THE ROTATION CORRECTION IS NON-ZERO

  NUMBER OF EQUATIONS =       975     NUMBER OF RHS =    1
  NUMBER OF FLOATING PT. OPERATIONS =  5.07E+06

  USING THE DIRECT SOLVER WITH  42 PROCESSORS

     CHECK POINT   START OF SOLVER    

     CHECK POINT  END OF SOLVER       

       ELAPSED USER TIME (SEC)      =  0.20000    
       ELAPSED SYSTEM TIME (SEC)    =  9.00000E-02
       ELAPSED TOTAL CPU TIME (SEC) =  0.29000    
       ELAPSED WALLCLOCK TIME (SEC) =          0

               CONVERGENCE CHECKS FOR EQUILIBRIUM ITERATION     7


 AVERAGE FORCE                       178.       TIME AVG. FORCE        152.    
 LARGEST RESIDUAL FORCE            -3.622E-02   AT NODE   10000000   DOF  2
 LARGEST INCREMENT OF DISP.         3.203E-03   AT NODE        762   DOF  2
 LARGEST CORRECTION TO DISP.        3.672E-05   AT NODE        762   DOF  2
 ESTIMATE OF DISP.    CORRECTION    2.737E-05
 FORCE     EQUILIB. ACCEPTED BASED ON SMALL RESIDUAL AND ESTIMATED CORRECTION

 AVERAGE MOMENT                      0.00       TIME AVG. MOMENT       188.    
                                                (FROM FORCE     FIELD)
 LARGEST RESIDUAL MOMENT             29.8       AT NODE   10000000   DOF  5
 LARGEST INCREMENT OF ROTATION     -1.352E-04   AT NODE        440   DOF  6
 LARGEST CORRECTION TO ROTATION    -1.555E-06   AT NODE        440   DOF  6
          THE MOMENT    IS ZERO EVERYWHERE BUT THE MOMENT    RESIDUAL OR
          THE ROTATION CORRECTION IS NON-ZERO

  NUMBER OF EQUATIONS =       975     NUMBER OF RHS =    1
  NUMBER OF FLOATING PT. OPERATIONS =  5.07E+06

  USING THE DIRECT SOLVER WITH  42 PROCESSORS

     CHECK POINT   START OF SOLVER    

     CHECK POINT  END OF SOLVER       

       ELAPSED USER TIME (SEC)      =  0.23000    
       ELAPSED SYSTEM TIME (SEC)    =  6.00000E-02
       ELAPSED TOTAL CPU TIME (SEC) =  0.29000    
       ELAPSED WALLCLOCK TIME (SEC) =          0

               CONVERGENCE CHECKS FOR EQUILIBRIUM ITERATION     8


 AVERAGE FORCE                       178.       TIME AVG. FORCE        152.    
 LARGEST RESIDUAL FORCE            -2.686E-02   AT NODE   10000000   DOF  2
 LARGEST INCREMENT OF DISP.         3.230E-03   AT NODE        762   DOF  2
 LARGEST CORRECTION TO DISP.        2.713E-05   AT NODE        762   DOF  2
          THE FORCE     EQUILIBRIUM EQUATIONS HAVE CONVERGED

 AVERAGE MOMENT                      0.00       TIME AVG. MOMENT       188.    
                                                (FROM FORCE     FIELD)
 LARGEST RESIDUAL MOMENT             22.1       AT NODE   10000000   DOF  5
 LARGEST INCREMENT OF ROTATION     -1.364E-04   AT NODE        440   DOF  6
 LARGEST CORRECTION TO ROTATION    -1.149E-06   AT NODE        440   DOF  6
          THE MOMENT    IS ZERO EVERYWHERE BUT THE MOMENT    RESIDUAL OR
          THE ROTATION CORRECTION IS NON-ZERO

  NUMBER OF EQUATIONS =       975     NUMBER OF RHS =    1
  NUMBER OF FLOATING PT. OPERATIONS =  5.07E+06

  USING THE DIRECT SOLVER WITH  42 PROCESSORS

     CHECK POINT   START OF SOLVER    

     CHECK POINT  END OF SOLVER       

       ELAPSED USER TIME (SEC)      =  0.25000    
       ELAPSED SYSTEM TIME (SEC)    =  6.00000E-02
       ELAPSED TOTAL CPU TIME (SEC) =  0.31000    
       ELAPSED WALLCLOCK TIME (SEC) =          0

               CONVERGENCE CHECKS FOR EQUILIBRIUM ITERATION     9


 AVERAGE FORCE                       178.       TIME AVG. FORCE        152.    
 LARGEST RESIDUAL FORCE            -1.989E-02   AT NODE   10000000   DOF  2
 LARGEST INCREMENT OF DISP.         3.250E-03   AT NODE        762   DOF  2
 LARGEST CORRECTION TO DISP.        2.005E-05   AT NODE        762   DOF  2
          THE FORCE     EQUILIBRIUM EQUATIONS HAVE CONVERGED

 AVERAGE MOMENT                      0.00       TIME AVG. MOMENT       188.    
                                                (FROM FORCE     FIELD)
 LARGEST RESIDUAL MOMENT             16.3       AT NODE   10000000   DOF  5
 LARGEST INCREMENT OF ROTATION     -1.372E-04   AT NODE        440   DOF  6
 LARGEST CORRECTION TO ROTATION    -8.491E-07   AT NODE        440   DOF  6
          THE MOMENT    IS ZERO EVERYWHERE BUT THE MOMENT    RESIDUAL OR
          THE ROTATION CORRECTION IS NON-ZERO

  NUMBER OF EQUATIONS =       975     NUMBER OF RHS =    1
  NUMBER OF FLOATING PT. OPERATIONS =  5.07E+06

  USING THE DIRECT SOLVER WITH  42 PROCESSORS

     CHECK POINT   START OF SOLVER    

     CHECK POINT  END OF SOLVER       

       ELAPSED USER TIME (SEC)      =  0.22000    
       ELAPSED SYSTEM TIME (SEC)    =  9.00000E-02
       ELAPSED TOTAL CPU TIME (SEC) =  0.31000    
       ELAPSED WALLCLOCK TIME (SEC) =          0

               CONVERGENCE CHECKS FOR EQUILIBRIUM ITERATION    10


 AVERAGE FORCE                       178.       TIME AVG. FORCE        152.    
 LARGEST RESIDUAL FORCE            -1.470E-02   AT NODE   10000000   DOF  2
 LARGEST INCREMENT OF DISP.         3.265E-03   AT NODE        762   DOF  2
 LARGEST CORRECTION TO DISP.        1.480E-05   AT NODE        762   DOF  2
          THE FORCE     EQUILIBRIUM EQUATIONS HAVE CONVERGED BASED ON ALTERNATIVE
          RESIDUAL CRITERION

 AVERAGE MOMENT                      0.00       TIME AVG. MOMENT       188.    
                                                (FROM FORCE     FIELD)
 LARGEST RESIDUAL MOMENT             12.1       AT NODE   10000000   DOF  5
 LARGEST INCREMENT OF ROTATION     -1.378E-04   AT NODE        440   DOF  6
 LARGEST CORRECTION TO ROTATION    -6.268E-07   AT NODE        440   DOF  6
          THE MOMENT    IS ZERO EVERYWHERE BUT THE MOMENT    RESIDUAL OR
          THE ROTATION CORRECTION IS NON-ZERO

  NUMBER OF EQUATIONS =       975     NUMBER OF RHS =    1
  NUMBER OF FLOATING PT. OPERATIONS =  5.07E+06

  USING THE DIRECT SOLVER WITH  42 PROCESSORS

     CHECK POINT   START OF SOLVER    

     CHECK POINT  END OF SOLVER       

       ELAPSED USER TIME (SEC)      =  0.23000    
       ELAPSED SYSTEM TIME (SEC)    =  9.00000E-02
       ELAPSED TOTAL CPU TIME (SEC) =  0.32000    
       ELAPSED WALLCLOCK TIME (SEC) =          0

               CONVERGENCE CHECKS FOR EQUILIBRIUM ITERATION    11


 AVERAGE FORCE                       178.       TIME AVG. FORCE        152.    
 LARGEST RESIDUAL FORCE            -1.086E-02   AT NODE   10000000   DOF  2
 LARGEST INCREMENT OF DISP.         3.276E-03   AT NODE        762   DOF  2
 LARGEST CORRECTION TO DISP.        1.092E-05   AT NODE        762   DOF  2
          THE FORCE     EQUILIBRIUM EQUATIONS HAVE CONVERGED BASED ON ALTERNATIVE
          RESIDUAL CRITERION

 AVERAGE MOMENT                      0.00       TIME AVG. MOMENT       188.    
                                                (FROM FORCE     FIELD)
 LARGEST RESIDUAL MOMENT             8.91       AT NODE   10000000   DOF  5
 LARGEST INCREMENT OF ROTATION     -1.383E-04   AT NODE        440   DOF  6
 LARGEST CORRECTION TO ROTATION    -4.623E-07   AT NODE        440   DOF  6
          THE MOMENT    IS ZERO EVERYWHERE BUT THE MOMENT    RESIDUAL OR
          THE ROTATION CORRECTION IS NON-ZERO

  NUMBER OF EQUATIONS =       975     NUMBER OF RHS =    1
  NUMBER OF FLOATING PT. OPERATIONS =  5.07E+06

  USING THE DIRECT SOLVER WITH  42 PROCESSORS

     CHECK POINT   START OF SOLVER    

     CHECK POINT  END OF SOLVER       

       ELAPSED USER TIME (SEC)      =  0.21000    
       ELAPSED SYSTEM TIME (SEC)    =  7.00000E-02
       ELAPSED TOTAL CPU TIME (SEC) =  0.28000    
       ELAPSED WALLCLOCK TIME (SEC) =          0

               CONVERGENCE CHECKS FOR EQUILIBRIUM ITERATION    12


 AVERAGE FORCE                       178.       TIME AVG. FORCE        152.    
 LARGEST RESIDUAL FORCE            -8.013E-03   AT NODE   10000000   DOF  2
 LARGEST INCREMENT OF DISP.         3.284E-03   AT NODE        762   DOF  2
 LARGEST CORRECTION TO DISP.        8.049E-06   AT NODE        762   DOF  2
          THE FORCE     EQUILIBRIUM EQUATIONS HAVE CONVERGED BASED ON ALTERNATIVE
          RESIDUAL CRITERION

 AVERAGE MOMENT                      0.00       TIME AVG. MOMENT       188.    
                                                (FROM FORCE     FIELD)
 LARGEST RESIDUAL MOMENT             6.57       AT NODE   10000000   DOF  5
 LARGEST INCREMENT OF ROTATION     -1.386E-04   AT NODE        440   DOF  6
 LARGEST CORRECTION TO ROTATION    -3.409E-07   AT NODE        440   DOF  6
          THE MOMENT    IS ZERO EVERYWHERE BUT THE MOMENT    RESIDUAL OR
          THE ROTATION CORRECTION IS NON-ZERO

  NUMBER OF EQUATIONS =       975     NUMBER OF RHS =    1
  NUMBER OF FLOATING PT. OPERATIONS =  5.07E+06

  USING THE DIRECT SOLVER WITH  42 PROCESSORS

     CHECK POINT   START OF SOLVER    

     CHECK POINT  END OF SOLVER       

       ELAPSED USER TIME (SEC)      =  0.23000    
       ELAPSED SYSTEM TIME (SEC)    =  0.11000    
       ELAPSED TOTAL CPU TIME (SEC) =  0.34000    
       ELAPSED WALLCLOCK TIME (SEC) =          0

               CONVERGENCE CHECKS FOR EQUILIBRIUM ITERATION    13


 AVERAGE FORCE                       178.       TIME AVG. FORCE        152.    
 LARGEST RESIDUAL FORCE            -5.910E-03   AT NODE   10000000   DOF  2
 LARGEST INCREMENT OF DISP.         3.290E-03   AT NODE        762   DOF  2
 LARGEST CORRECTION TO DISP.        5.932E-06   AT NODE        762   DOF  2
          THE FORCE     EQUILIBRIUM EQUATIONS HAVE CONVERGED BASED ON ALTERNATIVE
          RESIDUAL CRITERION

 AVERAGE MOMENT                      0.00       TIME AVG. MOMENT       188.    
                                                (FROM FORCE     FIELD)
 LARGEST RESIDUAL MOMENT             4.84       AT NODE   10000000   DOF  5
 LARGEST INCREMENT OF ROTATION     -1.389E-04   AT NODE        440   DOF  6
 LARGEST CORRECTION TO ROTATION    -2.512E-07   AT NODE        440   DOF  6
          THE MOMENT    IS ZERO EVERYWHERE BUT THE MOMENT    RESIDUAL OR
          THE ROTATION CORRECTION IS NON-ZERO

  NUMBER OF EQUATIONS =       975     NUMBER OF RHS =    1
  NUMBER OF FLOATING PT. OPERATIONS =  5.07E+06

  USING THE DIRECT SOLVER WITH  42 PROCESSORS

     CHECK POINT   START OF SOLVER    

     CHECK POINT  END OF SOLVER       

       ELAPSED USER TIME (SEC)      =  0.20000    
       ELAPSED SYSTEM TIME (SEC)    =  9.00000E-02
       ELAPSED TOTAL CPU TIME (SEC) =  0.29000    
       ELAPSED WALLCLOCK TIME (SEC) =          0

               CONVERGENCE CHECKS FOR EQUILIBRIUM ITERATION    14


 AVERAGE FORCE                       178.       TIME AVG. FORCE        152.    
 LARGEST RESIDUAL FORCE            -4.356E-03   AT NODE   10000000   DOF  2
 LARGEST INCREMENT OF DISP.         3.294E-03   AT NODE        762   DOF  2
 LARGEST CORRECTION TO DISP.        4.371E-06   AT NODE        762   DOF  2
          THE FORCE     EQUILIBRIUM EQUATIONS HAVE CONVERGED BASED ON ALTERNATIVE
          RESIDUAL CRITERION

 AVERAGE MOMENT                      0.00       TIME AVG. MOMENT       188.    
                                                (FROM FORCE     FIELD)
 LARGEST RESIDUAL MOMENT             3.57       AT NODE   10000000   DOF  5
 LARGEST INCREMENT OF ROTATION     -1.391E-04   AT NODE        440   DOF  6
 LARGEST CORRECTION TO ROTATION    -1.851E-07   AT NODE        440   DOF  6
          THE MOMENT    IS ZERO EVERYWHERE BUT THE MOMENT    RESIDUAL OR
          THE ROTATION CORRECTION IS NON-ZERO

  NUMBER OF EQUATIONS =       975     NUMBER OF RHS =    1
  NUMBER OF FLOATING PT. OPERATIONS =  5.07E+06

  USING THE DIRECT SOLVER WITH  42 PROCESSORS

     CHECK POINT   START OF SOLVER    

     CHECK POINT  END OF SOLVER       

       ELAPSED USER TIME (SEC)      =  0.26000    
       ELAPSED SYSTEM TIME (SEC)    =  4.00000E-02
       ELAPSED TOTAL CPU TIME (SEC) =  0.30000    
       ELAPSED WALLCLOCK TIME (SEC) =          0

               CONVERGENCE CHECKS FOR EQUILIBRIUM ITERATION    15


 AVERAGE FORCE                       178.       TIME AVG. FORCE        152.    
 LARGEST RESIDUAL FORCE            -3.210E-03   AT NODE   10000000   DOF  2
 LARGEST INCREMENT OF DISP.         3.297E-03   AT NODE        762   DOF  2
 LARGEST CORRECTION TO DISP.        3.220E-06   AT NODE        762   DOF  2
          THE FORCE     EQUILIBRIUM EQUATIONS HAVE CONVERGED BASED ON ALTERNATIVE
          RESIDUAL CRITERION

 AVERAGE MOMENT                      0.00       TIME AVG. MOMENT       188.    
                                                (FROM FORCE     FIELD)
 LARGEST RESIDUAL MOMENT             2.63       AT NODE   10000000   DOF  5
 LARGEST INCREMENT OF ROTATION     -1.392E-04   AT NODE        440   DOF  6
 LARGEST CORRECTION TO ROTATION    -1.364E-07   AT NODE        440   DOF  6
          ALL ROTATION CORRECTIONS ARE ZERO
          THE MOMENT    IS ZERO EVERYWHERE BUT THE MOMENT    RESIDUAL OR
          THE ROTATION CORRECTION IS NON-ZERO

  NUMBER OF EQUATIONS =       975     NUMBER OF RHS =    1
  NUMBER OF FLOATING PT. OPERATIONS =  5.07E+06

  USING THE DIRECT SOLVER WITH  42 PROCESSORS

     CHECK POINT   START OF SOLVER    

     CHECK POINT  END OF SOLVER       

       ELAPSED USER TIME (SEC)      =  0.31000    
       ELAPSED SYSTEM TIME (SEC)    =  3.00000E-02
       ELAPSED TOTAL CPU TIME (SEC) =  0.34000    
       ELAPSED WALLCLOCK TIME (SEC) =          0

               CONVERGENCE CHECKS FOR EQUILIBRIUM ITERATION    16


 AVERAGE FORCE                       178.       TIME AVG. FORCE        152.    
 LARGEST RESIDUAL FORCE            -2.365E-03   AT NODE   10000000   DOF  2
 LARGEST INCREMENT OF DISP.         3.300E-03   AT NODE        762   DOF  2
 LARGEST CORRECTION TO DISP.        2.371E-06   AT NODE        762   DOF  2
          THE FORCE     EQUILIBRIUM EQUATIONS HAVE CONVERGED BASED ON ALTERNATIVE
          RESIDUAL CRITERION

 AVERAGE MOMENT                      0.00       TIME AVG. MOMENT       188.    
                                                (FROM FORCE     FIELD)
 LARGEST RESIDUAL MOMENT             1.94       AT NODE   10000000   DOF  5
 LARGEST INCREMENT OF ROTATION     -1.393E-04   AT NODE        440   DOF  6
 LARGEST CORRECTION TO ROTATION    -1.004E-07   AT NODE        440   DOF  6
          ALL ROTATION CORRECTIONS ARE ZERO
          THE MOMENT    IS ZERO EVERYWHERE BUT THE MOMENT    RESIDUAL OR
          THE ROTATION CORRECTION IS NON-ZERO
 

 ***NOTE: THE SOLUTION FAILS TO CONVERGE IN THE MAXIMUM NUMBER OF EQUILIBRIUM 
          ITERATIONS ALLOWED.
 

 ***ERROR: TIME INCREMENT REQUIRED IS LESS THAN THE MINIMUM SPECIFIED

 ***ERROR: THE ANALYSIS HAS BEEN TERMINATED DUE TO PREVIOUS ERRORS. ALL OUTPUT 
           REQUESTS HAVE BEEN WRITTEN FOR THE LAST CONVERGED INCREMENT.



     ANALYSIS SUMMARY:
     TOTAL OF         42  INCREMENTS
                       7  CUTBACKS IN AUTOMATIC INCREMENTATION
                     378  ITERATIONS INCLUDING CONTACT ITERATIONS IF PRESENT
                     378  PASSES THROUGH THE EQUATION SOLVER OF WHICH 
                     378  INVOLVE MATRIX DECOMPOSITION, INCLUDING
                       0  DECOMPOSITION(S) OF THE MASS MATRIX
                       1  REORDERING OF EQUATIONS TO MINIMIZE WAVEFRONT
                       0  ADDITIONAL RESIDUAL EVALUATIONS FOR LINE SEARCHES
                       0  ADDITIONAL OPERATOR EVALUATIONS FOR LINE SEARCHES
                     283  WARNING MESSAGES DURING USER INPUT PROCESSING
                       0  WARNING MESSAGES DURING ANALYSIS
                       0  ANALYSIS WARNINGS ARE NUMERICAL PROBLEM MESSAGES
                       0  ANALYSIS WARNINGS ARE NEGATIVE EIGENVALUE MESSAGES
                       2  ERROR MESSAGES



     JOB TIME SUMMARY
       USER TIME (SEC)      =   290.81    
       SYSTEM TIME (SEC)    =   90.230    
       TOTAL CPU TIME (SEC) =   381.04    
       WALLCLOCK TIME (SEC) =         26
